Global frequency set at 1000000000000 ticks per second
gem5 Simulator System.  https://www.gem5.org
gem5 is copyrighted software; use the --copyright option for details.

gem5 version 22.1.0.0
gem5 compiled Aug 27 2025 16:10:28
gem5 started Oct 31 2025 18:39:01
gem5 executing on vboxuser-VirtualBox, pid 39896
command line: /home/vboxuser/gem5/build/RISCV/gem5.opt --debug-flags=MinorGUI gem5_config.py --cpu-type MinorCPU --caches --l1d_size 8388608 --l1i_size 8388608 --cacheline_size 512 --cpu-clock 1MHz --sys-clock 10GHz -c program_1_b_2

**** REAL SIMULATION ****
1000000: system.cpu.fetch1: Log4GUI: fetch1: 1000000: 0: 10094: <assembly>
2000000: system.cpu.fetch1: Log4GUI: fetch1: 2000000: 1: 10094: <assembly>
3000000: system.cpu.fetch1: Log4GUI: fetch1: 3000000: 1: 10094: <assembly>
4000000: system.cpu.fetch1: Log4GUI: fetch1: 4000000: 1: 10094: <assembly>
5000000: system.cpu.decode: Log4GUI: decode: 5000000: 0: 10094: auipc x1, 1
5000000: system.cpu.fetch1: Log4GUI: fetch1: 5000000: 0: 10098: <assembly>
6000000: system.cpu.execute: Log4GUI: execute: 6000000: 0: 10094: auipc x1, 1: 0
6000000: system.cpu.decode: Log4GUI: decode: 6000000: 0: 10098: addi x1, x1, 200
6000000: system.cpu.fetch1: Log4GUI: fetch1: 6000000: 0: 1009c: <assembly>
7000000: system.cpu.memory: Log4GUI: memory: 7000000: 0: 10094: auipc x1, 1
7000000: system.cpu.execute: Log4GUI: execute: 7000000: 0: 10098: addi x1, x1, 200: 0
7000000: system.cpu.decode: Log4GUI: decode: 7000000: 0: 1009c: flw f1, 0(x1)
7000000: system.cpu.fetch1: Log4GUI: fetch1: 7000000: 0: 100a0: <assembly>
8000000: system.cpu.writeback: Log4GUI: writeback: 8000000: 0: 10094: auipc x1, 1
8000000: system.cpu.writeback: REGISTERS
8000000: global: x0=0x00000000
8000000: global: x1=0x00011094
8000000: global: x2=0x7fffff90
8000000: global: x3=0x00000000
8000000: global: x4=0x00000000
8000000: global: x5=0x00000000
8000000: global: x6=0x00000000
8000000: global: x7=0x00000000
8000000: global: x8=0x00000000
8000000: global: x9=0x00000000
8000000: global: x10=0x00000000
8000000: global: x11=0x00000000
8000000: global: x12=0x00000000
8000000: global: x13=0x00000000
8000000: global: x14=0x00000000
8000000: global: x15=0x00000000
8000000: global: x16=0x00000000
8000000: global: x17=0x00000000
8000000: global: x18=0x00000000
8000000: global: x19=0x00000000
8000000: global: x20=0x00000000
8000000: global: x21=0x00000000
8000000: global: x22=0x00000000
8000000: global: x23=0x00000000
8000000: global: x24=0x00000000
8000000: global: x25=0x00000000
8000000: global: x26=0x00000000
8000000: global: x27=0x00000000
8000000: global: x28=0x00000000
8000000: global: x29=0x00000000
8000000: global: x30=0x00000000
8000000: global: x31=0x00000000
8000000: global: f0=0x00000000
8000000: global: f1=0x00000000
8000000: global: f2=0x00000000
8000000: global: f3=0x00000000
8000000: global: f4=0x00000000
8000000: global: f5=0x00000000
8000000: global: f6=0x00000000
8000000: global: f7=0x00000000
8000000: global: f8=0x00000000
8000000: global: f9=0x00000000
8000000: global: f10=0x00000000
8000000: global: f11=0x00000000
8000000: global: f12=0x00000000
8000000: global: f13=0x00000000
8000000: global: f14=0x00000000
8000000: global: f15=0x00000000
8000000: global: f16=0x00000000
8000000: global: f17=0x00000000
8000000: global: f18=0x00000000
8000000: global: f19=0x00000000
8000000: global: f20=0x00000000
8000000: global: f21=0x00000000
8000000: global: f22=0x00000000
8000000: global: f23=0x00000000
8000000: global: f24=0x00000000
8000000: global: f25=0x00000000
8000000: global: f26=0x00000000
8000000: global: f27=0x00000000
8000000: global: f28=0x00000000
8000000: global: f29=0x00000000
8000000: global: f30=0x00000000
8000000: global: f31=0x00000000
8000000: system.cpu.memory: Log4GUI: memory: 8000000: 0: 10098: addi x1, x1, 200
8000000: system.cpu.execute: Log4GUI: execute: 8000000: 0: 1009c: flw f1, 0(x1): 0
8000000: system.cpu.decode: Log4GUI: decode: 8000000: 0: 100a0: auipc x2, 1
8000000: system.cpu.fetch1: Log4GUI: fetch1: 8000000: 0: 100a4: <assembly>
9000000: system.cpu.writeback: Log4GUI: writeback: 9000000: 0: 10098: addi x1, x1, 200
9000000: system.cpu.writeback: REGISTERS
9000000: global: x0=0x00000000
9000000: global: x1=0x0001115c
9000000: global: x2=0x7fffff90
9000000: global: x3=0x00000000
9000000: global: x4=0x00000000
9000000: global: x5=0x00000000
9000000: global: x6=0x00000000
9000000: global: x7=0x00000000
9000000: global: x8=0x00000000
9000000: global: x9=0x00000000
9000000: global: x10=0x00000000
9000000: global: x11=0x00000000
9000000: global: x12=0x00000000
9000000: global: x13=0x00000000
9000000: global: x14=0x00000000
9000000: global: x15=0x00000000
9000000: global: x16=0x00000000
9000000: global: x17=0x00000000
9000000: global: x18=0x00000000
9000000: global: x19=0x00000000
9000000: global: x20=0x00000000
9000000: global: x21=0x00000000
9000000: global: x22=0x00000000
9000000: global: x23=0x00000000
9000000: global: x24=0x00000000
9000000: global: x25=0x00000000
9000000: global: x26=0x00000000
9000000: global: x27=0x00000000
9000000: global: x28=0x00000000
9000000: global: x29=0x00000000
9000000: global: x30=0x00000000
9000000: global: x31=0x00000000
9000000: global: f0=0x00000000
9000000: global: f1=0x00000000
9000000: global: f2=0x00000000
9000000: global: f3=0x00000000
9000000: global: f4=0x00000000
9000000: global: f5=0x00000000
9000000: global: f6=0x00000000
9000000: global: f7=0x00000000
9000000: global: f8=0x00000000
9000000: global: f9=0x00000000
9000000: global: f10=0x00000000
9000000: global: f11=0x00000000
9000000: global: f12=0x00000000
9000000: global: f13=0x00000000
9000000: global: f14=0x00000000
9000000: global: f15=0x00000000
9000000: global: f16=0x00000000
9000000: global: f17=0x00000000
9000000: global: f18=0x00000000
9000000: global: f19=0x00000000
9000000: global: f20=0x00000000
9000000: global: f21=0x00000000
9000000: global: f22=0x00000000
9000000: global: f23=0x00000000
9000000: global: f24=0x00000000
9000000: global: f25=0x00000000
9000000: global: f26=0x00000000
9000000: global: f27=0x00000000
9000000: global: f28=0x00000000
9000000: global: f29=0x00000000
9000000: global: f30=0x00000000
9000000: global: f31=0x00000000
9000000: system.cpu.memory: Log4GUI: memory: 9000000: 0: 1009c: flw f1, 0(x1)
9000000: system.cpu.execute: Log4GUI: execute: 9000000: 0: 100a0: auipc x2, 1: 0
9000000: system.cpu.decode: Log4GUI: decode: 9000000: 0: 100a4: addi x2, x2, 252
9000000: system.cpu.fetch1: Log4GUI: fetch1: 9000000: 0: 100a8: <assembly>
10000000: system.cpu.memory: Log4GUI: memory: 10000000: 1: 1009c: flw f1, 0(x1)
10000000: system.cpu.execute: Log4GUI: execute: 10000000: 1: 100a0: auipc x2, 1: 0
10000000: system.cpu.decode: Log4GUI: decode: 10000000: 1: 100a4: addi x2, x2, 252
10000000: system.cpu.fetch1: Log4GUI: fetch1: 10000000: 1: 100a8: <assembly>
11000000: system.cpu.decode: Log4GUI: decode: 11000000: 1: 100a4: addi x2, x2, 252
11000000: system.cpu.fetch1: Log4GUI: fetch1: 11000000: 1: 100a8: <assembly>
12000000: system.cpu.writeback: Log4GUI: writeback: 12000000: 0: 1009c: flw f1, 0(x1)
12000000: system.cpu.writeback: REGISTERS
12000000: global: x0=0x00000000
12000000: global: x1=0x0001115c
12000000: global: x2=0x7fffff90
12000000: global: x3=0x00000000
12000000: global: x4=0x00000000
12000000: global: x5=0x00000000
12000000: global: x6=0x00000000
12000000: global: x7=0x00000000
12000000: global: x8=0x00000000
12000000: global: x9=0x00000000
12000000: global: x10=0x00000000
12000000: global: x11=0x00000000
12000000: global: x12=0x00000000
12000000: global: x13=0x00000000
12000000: global: x14=0x00000000
12000000: global: x15=0x00000000
12000000: global: x16=0x00000000
12000000: global: x17=0x00000000
12000000: global: x18=0x00000000
12000000: global: x19=0x00000000
12000000: global: x20=0x00000000
12000000: global: x21=0x00000000
12000000: global: x22=0x00000000
12000000: global: x23=0x00000000
12000000: global: x24=0x00000000
12000000: global: x25=0x00000000
12000000: global: x26=0x00000000
12000000: global: x27=0x00000000
12000000: global: x28=0x00000000
12000000: global: x29=0x00000000
12000000: global: x30=0x00000000
12000000: global: x31=0x00000000
12000000: global: f0=0x00000000
12000000: global: f1=0x40933333
12000000: global: f2=0x00000000
12000000: global: f3=0x00000000
12000000: global: f4=0x00000000
12000000: global: f5=0x00000000
12000000: global: f6=0x00000000
12000000: global: f7=0x00000000
12000000: global: f8=0x00000000
12000000: global: f9=0x00000000
12000000: global: f10=0x00000000
12000000: global: f11=0x00000000
12000000: global: f12=0x00000000
12000000: global: f13=0x00000000
12000000: global: f14=0x00000000
12000000: global: f15=0x00000000
12000000: global: f16=0x00000000
12000000: global: f17=0x00000000
12000000: global: f18=0x00000000
12000000: global: f19=0x00000000
12000000: global: f20=0x00000000
12000000: global: f21=0x00000000
12000000: global: f22=0x00000000
12000000: global: f23=0x00000000
12000000: global: f24=0x00000000
12000000: global: f25=0x00000000
12000000: global: f26=0x00000000
12000000: global: f27=0x00000000
12000000: global: f28=0x00000000
12000000: global: f29=0x00000000
12000000: global: f30=0x00000000
12000000: global: f31=0x00000000
12000000: system.cpu.memory: Log4GUI: memory: 12000000: 0: 100a0: auipc x2, 1
12000000: system.cpu.execute: Log4GUI: execute: 12000000: 0: 100a4: addi x2, x2, 252: 0
12000000: system.cpu.decode: Log4GUI: decode: 12000000: 0: 100a8: flw f1, 0(x2)
12000000: system.cpu.fetch1: Log4GUI: fetch1: 12000000: 0: 100ac: <assembly>
13000000: system.cpu.writeback: Log4GUI: writeback: 13000000: 0: 100a0: auipc x2, 1
13000000: system.cpu.writeback: REGISTERS
13000000: global: x0=0x00000000
13000000: global: x1=0x0001115c
13000000: global: x2=0x000110a0
13000000: global: x3=0x00000000
13000000: global: x4=0x00000000
13000000: global: x5=0x00000000
13000000: global: x6=0x00000000
13000000: global: x7=0x00000000
13000000: global: x8=0x00000000
13000000: global: x9=0x00000000
13000000: global: x10=0x00000000
13000000: global: x11=0x00000000
13000000: global: x12=0x00000000
13000000: global: x13=0x00000000
13000000: global: x14=0x00000000
13000000: global: x15=0x00000000
13000000: global: x16=0x00000000
13000000: global: x17=0x00000000
13000000: global: x18=0x00000000
13000000: global: x19=0x00000000
13000000: global: x20=0x00000000
13000000: global: x21=0x00000000
13000000: global: x22=0x00000000
13000000: global: x23=0x00000000
13000000: global: x24=0x00000000
13000000: global: x25=0x00000000
13000000: global: x26=0x00000000
13000000: global: x27=0x00000000
13000000: global: x28=0x00000000
13000000: global: x29=0x00000000
13000000: global: x30=0x00000000
13000000: global: x31=0x00000000
13000000: global: f0=0x00000000
13000000: global: f1=0x40933333
13000000: global: f2=0x00000000
13000000: global: f3=0x00000000
13000000: global: f4=0x00000000
13000000: global: f5=0x00000000
13000000: global: f6=0x00000000
13000000: global: f7=0x00000000
13000000: global: f8=0x00000000
13000000: global: f9=0x00000000
13000000: global: f10=0x00000000
13000000: global: f11=0x00000000
13000000: global: f12=0x00000000
13000000: global: f13=0x00000000
13000000: global: f14=0x00000000
13000000: global: f15=0x00000000
13000000: global: f16=0x00000000
13000000: global: f17=0x00000000
13000000: global: f18=0x00000000
13000000: global: f19=0x00000000
13000000: global: f20=0x00000000
13000000: global: f21=0x00000000
13000000: global: f22=0x00000000
13000000: global: f23=0x00000000
13000000: global: f24=0x00000000
13000000: global: f25=0x00000000
13000000: global: f26=0x00000000
13000000: global: f27=0x00000000
13000000: global: f28=0x00000000
13000000: global: f29=0x00000000
13000000: global: f30=0x00000000
13000000: global: f31=0x00000000
13000000: system.cpu.memory: Log4GUI: memory: 13000000: 0: 100a4: addi x2, x2, 252
13000000: system.cpu.execute: Log4GUI: execute: 13000000: 0: 100a8: flw f1, 0(x2): 0
13000000: system.cpu.decode: Log4GUI: decode: 13000000: 0: 100ac: auipc x3, 1
13000000: system.cpu.fetch1: Log4GUI: fetch1: 13000000: 0: 100b0: <assembly>
14000000: system.cpu.writeback: Log4GUI: writeback: 14000000: 0: 100a4: addi x2, x2, 252
14000000: system.cpu.writeback: REGISTERS
14000000: global: x0=0x00000000
14000000: global: x1=0x0001115c
14000000: global: x2=0x0001119c
14000000: global: x3=0x00000000
14000000: global: x4=0x00000000
14000000: global: x5=0x00000000
14000000: global: x6=0x00000000
14000000: global: x7=0x00000000
14000000: global: x8=0x00000000
14000000: global: x9=0x00000000
14000000: global: x10=0x00000000
14000000: global: x11=0x00000000
14000000: global: x12=0x00000000
14000000: global: x13=0x00000000
14000000: global: x14=0x00000000
14000000: global: x15=0x00000000
14000000: global: x16=0x00000000
14000000: global: x17=0x00000000
14000000: global: x18=0x00000000
14000000: global: x19=0x00000000
14000000: global: x20=0x00000000
14000000: global: x21=0x00000000
14000000: global: x22=0x00000000
14000000: global: x23=0x00000000
14000000: global: x24=0x00000000
14000000: global: x25=0x00000000
14000000: global: x26=0x00000000
14000000: global: x27=0x00000000
14000000: global: x28=0x00000000
14000000: global: x29=0x00000000
14000000: global: x30=0x00000000
14000000: global: x31=0x00000000
14000000: global: f0=0x00000000
14000000: global: f1=0x40933333
14000000: global: f2=0x00000000
14000000: global: f3=0x00000000
14000000: global: f4=0x00000000
14000000: global: f5=0x00000000
14000000: global: f6=0x00000000
14000000: global: f7=0x00000000
14000000: global: f8=0x00000000
14000000: global: f9=0x00000000
14000000: global: f10=0x00000000
14000000: global: f11=0x00000000
14000000: global: f12=0x00000000
14000000: global: f13=0x00000000
14000000: global: f14=0x00000000
14000000: global: f15=0x00000000
14000000: global: f16=0x00000000
14000000: global: f17=0x00000000
14000000: global: f18=0x00000000
14000000: global: f19=0x00000000
14000000: global: f20=0x00000000
14000000: global: f21=0x00000000
14000000: global: f22=0x00000000
14000000: global: f23=0x00000000
14000000: global: f24=0x00000000
14000000: global: f25=0x00000000
14000000: global: f26=0x00000000
14000000: global: f27=0x00000000
14000000: global: f28=0x00000000
14000000: global: f29=0x00000000
14000000: global: f30=0x00000000
14000000: global: f31=0x00000000
14000000: system.cpu.memory: Log4GUI: memory: 14000000: 0: 100a8: flw f1, 0(x2)
14000000: system.cpu.execute: Log4GUI: execute: 14000000: 0: 100ac: auipc x3, 1: 0
14000000: system.cpu.decode: Log4GUI: decode: 14000000: 0: 100b0: addi x3, x3, 304
14000000: system.cpu.fetch1: Log4GUI: fetch1: 14000000: 0: 100b4: <assembly>
15000000: system.cpu.writeback: Log4GUI: writeback: 15000000: 0: 100a8: flw f1, 0(x2)
15000000: system.cpu.writeback: REGISTERS
15000000: global: x0=0x00000000
15000000: global: x1=0x0001115c
15000000: global: x2=0x0001119c
15000000: global: x3=0x00000000
15000000: global: x4=0x00000000
15000000: global: x5=0x00000000
15000000: global: x6=0x00000000
15000000: global: x7=0x00000000
15000000: global: x8=0x00000000
15000000: global: x9=0x00000000
15000000: global: x10=0x00000000
15000000: global: x11=0x00000000
15000000: global: x12=0x00000000
15000000: global: x13=0x00000000
15000000: global: x14=0x00000000
15000000: global: x15=0x00000000
15000000: global: x16=0x00000000
15000000: global: x17=0x00000000
15000000: global: x18=0x00000000
15000000: global: x19=0x00000000
15000000: global: x20=0x00000000
15000000: global: x21=0x00000000
15000000: global: x22=0x00000000
15000000: global: x23=0x00000000
15000000: global: x24=0x00000000
15000000: global: x25=0x00000000
15000000: global: x26=0x00000000
15000000: global: x27=0x00000000
15000000: global: x28=0x00000000
15000000: global: x29=0x00000000
15000000: global: x30=0x00000000
15000000: global: x31=0x00000000
15000000: global: f0=0x00000000
15000000: global: f1=0x4019999a
15000000: global: f2=0x00000000
15000000: global: f3=0x00000000
15000000: global: f4=0x00000000
15000000: global: f5=0x00000000
15000000: global: f6=0x00000000
15000000: global: f7=0x00000000
15000000: global: f8=0x00000000
15000000: global: f9=0x00000000
15000000: global: f10=0x00000000
15000000: global: f11=0x00000000
15000000: global: f12=0x00000000
15000000: global: f13=0x00000000
15000000: global: f14=0x00000000
15000000: global: f15=0x00000000
15000000: global: f16=0x00000000
15000000: global: f17=0x00000000
15000000: global: f18=0x00000000
15000000: global: f19=0x00000000
15000000: global: f20=0x00000000
15000000: global: f21=0x00000000
15000000: global: f22=0x00000000
15000000: global: f23=0x00000000
15000000: global: f24=0x00000000
15000000: global: f25=0x00000000
15000000: global: f26=0x00000000
15000000: global: f27=0x00000000
15000000: global: f28=0x00000000
15000000: global: f29=0x00000000
15000000: global: f30=0x00000000
15000000: global: f31=0x00000000
15000000: system.cpu.memory: Log4GUI: memory: 15000000: 0: 100ac: auipc x3, 1
15000000: system.cpu.execute: Log4GUI: execute: 15000000: 0: 100b0: addi x3, x3, 304: 0
15000000: system.cpu.decode: Log4GUI: decode: 15000000: 0: 100b4: lb x4, 0(x3)
15000000: system.cpu.fetch1: Log4GUI: fetch1: 15000000: 0: 100b8: <assembly>
16000000: system.cpu.writeback: Log4GUI: writeback: 16000000: 0: 100ac: auipc x3, 1
16000000: system.cpu.writeback: REGISTERS
16000000: global: x0=0x00000000
16000000: global: x1=0x0001115c
16000000: global: x2=0x0001119c
16000000: global: x3=0x000110ac
16000000: global: x4=0x00000000
16000000: global: x5=0x00000000
16000000: global: x6=0x00000000
16000000: global: x7=0x00000000
16000000: global: x8=0x00000000
16000000: global: x9=0x00000000
16000000: global: x10=0x00000000
16000000: global: x11=0x00000000
16000000: global: x12=0x00000000
16000000: global: x13=0x00000000
16000000: global: x14=0x00000000
16000000: global: x15=0x00000000
16000000: global: x16=0x00000000
16000000: global: x17=0x00000000
16000000: global: x18=0x00000000
16000000: global: x19=0x00000000
16000000: global: x20=0x00000000
16000000: global: x21=0x00000000
16000000: global: x22=0x00000000
16000000: global: x23=0x00000000
16000000: global: x24=0x00000000
16000000: global: x25=0x00000000
16000000: global: x26=0x00000000
16000000: global: x27=0x00000000
16000000: global: x28=0x00000000
16000000: global: x29=0x00000000
16000000: global: x30=0x00000000
16000000: global: x31=0x00000000
16000000: global: f0=0x00000000
16000000: global: f1=0x4019999a
16000000: global: f2=0x00000000
16000000: global: f3=0x00000000
16000000: global: f4=0x00000000
16000000: global: f5=0x00000000
16000000: global: f6=0x00000000
16000000: global: f7=0x00000000
16000000: global: f8=0x00000000
16000000: global: f9=0x00000000
16000000: global: f10=0x00000000
16000000: global: f11=0x00000000
16000000: global: f12=0x00000000
16000000: global: f13=0x00000000
16000000: global: f14=0x00000000
16000000: global: f15=0x00000000
16000000: global: f16=0x00000000
16000000: global: f17=0x00000000
16000000: global: f18=0x00000000
16000000: global: f19=0x00000000
16000000: global: f20=0x00000000
16000000: global: f21=0x00000000
16000000: global: f22=0x00000000
16000000: global: f23=0x00000000
16000000: global: f24=0x00000000
16000000: global: f25=0x00000000
16000000: global: f26=0x00000000
16000000: global: f27=0x00000000
16000000: global: f28=0x00000000
16000000: global: f29=0x00000000
16000000: global: f30=0x00000000
16000000: global: f31=0x00000000
16000000: system.cpu.memory: Log4GUI: memory: 16000000: 0: 100b0: addi x3, x3, 304
16000000: system.cpu.execute: Log4GUI: execute: 16000000: 0: 100b4: lb x4, 0(x3): 0
16000000: system.cpu.decode: Log4GUI: decode: 16000000: 0: 100b8: auipc x3, 1
16000000: system.cpu.fetch1: Log4GUI: fetch1: 16000000: 0: 100bc: <assembly>
17000000: system.cpu.writeback: Log4GUI: writeback: 17000000: 0: 100b0: addi x3, x3, 304
17000000: system.cpu.writeback: REGISTERS
17000000: global: x0=0x00000000
17000000: global: x1=0x0001115c
17000000: global: x2=0x0001119c
17000000: global: x3=0x000111dc
17000000: global: x4=0x00000000
17000000: global: x5=0x00000000
17000000: global: x6=0x00000000
17000000: global: x7=0x00000000
17000000: global: x8=0x00000000
17000000: global: x9=0x00000000
17000000: global: x10=0x00000000
17000000: global: x11=0x00000000
17000000: global: x12=0x00000000
17000000: global: x13=0x00000000
17000000: global: x14=0x00000000
17000000: global: x15=0x00000000
17000000: global: x16=0x00000000
17000000: global: x17=0x00000000
17000000: global: x18=0x00000000
17000000: global: x19=0x00000000
17000000: global: x20=0x00000000
17000000: global: x21=0x00000000
17000000: global: x22=0x00000000
17000000: global: x23=0x00000000
17000000: global: x24=0x00000000
17000000: global: x25=0x00000000
17000000: global: x26=0x00000000
17000000: global: x27=0x00000000
17000000: global: x28=0x00000000
17000000: global: x29=0x00000000
17000000: global: x30=0x00000000
17000000: global: x31=0x00000000
17000000: global: f0=0x00000000
17000000: global: f1=0x4019999a
17000000: global: f2=0x00000000
17000000: global: f3=0x00000000
17000000: global: f4=0x00000000
17000000: global: f5=0x00000000
17000000: global: f6=0x00000000
17000000: global: f7=0x00000000
17000000: global: f8=0x00000000
17000000: global: f9=0x00000000
17000000: global: f10=0x00000000
17000000: global: f11=0x00000000
17000000: global: f12=0x00000000
17000000: global: f13=0x00000000
17000000: global: f14=0x00000000
17000000: global: f15=0x00000000
17000000: global: f16=0x00000000
17000000: global: f17=0x00000000
17000000: global: f18=0x00000000
17000000: global: f19=0x00000000
17000000: global: f20=0x00000000
17000000: global: f21=0x00000000
17000000: global: f22=0x00000000
17000000: global: f23=0x00000000
17000000: global: f24=0x00000000
17000000: global: f25=0x00000000
17000000: global: f26=0x00000000
17000000: global: f27=0x00000000
17000000: global: f28=0x00000000
17000000: global: f29=0x00000000
17000000: global: f30=0x00000000
17000000: global: f31=0x00000000
17000000: system.cpu.memory: Log4GUI: memory: 17000000: 0: 100b4: lb x4, 0(x3)
17000000: system.cpu.execute: Log4GUI: execute: 17000000: 0: 100b8: auipc x3, 1: 0
17000000: system.cpu.decode: Log4GUI: decode: 17000000: 0: 100bc: addi x3, x3, 297
17000000: system.cpu.fetch1: Log4GUI: fetch1: 17000000: 0: 100c0: <assembly>
18000000: system.cpu.writeback: Log4GUI: writeback: 18000000: 0: 100b4: lb x4, 0(x3)
18000000: system.cpu.writeback: REGISTERS
18000000: global: x0=0x00000000
18000000: global: x1=0x0001115c
18000000: global: x2=0x0001119c
18000000: global: x3=0x000111dc
18000000: global: x4=0xffffffab
18000000: global: x5=0x00000000
18000000: global: x6=0x00000000
18000000: global: x7=0x00000000
18000000: global: x8=0x00000000
18000000: global: x9=0x00000000
18000000: global: x10=0x00000000
18000000: global: x11=0x00000000
18000000: global: x12=0x00000000
18000000: global: x13=0x00000000
18000000: global: x14=0x00000000
18000000: global: x15=0x00000000
18000000: global: x16=0x00000000
18000000: global: x17=0x00000000
18000000: global: x18=0x00000000
18000000: global: x19=0x00000000
18000000: global: x20=0x00000000
18000000: global: x21=0x00000000
18000000: global: x22=0x00000000
18000000: global: x23=0x00000000
18000000: global: x24=0x00000000
18000000: global: x25=0x00000000
18000000: global: x26=0x00000000
18000000: global: x27=0x00000000
18000000: global: x28=0x00000000
18000000: global: x29=0x00000000
18000000: global: x30=0x00000000
18000000: global: x31=0x00000000
18000000: global: f0=0x00000000
18000000: global: f1=0x4019999a
18000000: global: f2=0x00000000
18000000: global: f3=0x00000000
18000000: global: f4=0x00000000
18000000: global: f5=0x00000000
18000000: global: f6=0x00000000
18000000: global: f7=0x00000000
18000000: global: f8=0x00000000
18000000: global: f9=0x00000000
18000000: global: f10=0x00000000
18000000: global: f11=0x00000000
18000000: global: f12=0x00000000
18000000: global: f13=0x00000000
18000000: global: f14=0x00000000
18000000: global: f15=0x00000000
18000000: global: f16=0x00000000
18000000: global: f17=0x00000000
18000000: global: f18=0x00000000
18000000: global: f19=0x00000000
18000000: global: f20=0x00000000
18000000: global: f21=0x00000000
18000000: global: f22=0x00000000
18000000: global: f23=0x00000000
18000000: global: f24=0x00000000
18000000: global: f25=0x00000000
18000000: global: f26=0x00000000
18000000: global: f27=0x00000000
18000000: global: f28=0x00000000
18000000: global: f29=0x00000000
18000000: global: f30=0x00000000
18000000: global: f31=0x00000000
18000000: system.cpu.memory: Log4GUI: memory: 18000000: 0: 100b8: auipc x3, 1
18000000: system.cpu.execute: Log4GUI: execute: 18000000: 0: 100bc: addi x3, x3, 297: 0
18000000: system.cpu.decode: Log4GUI: decode: 18000000: 0: 100c0: lb x5, 0(x3)
18000000: system.cpu.fetch1: Log4GUI: fetch1: 18000000: 0: 100c4: <assembly>
19000000: system.cpu.writeback: Log4GUI: writeback: 19000000: 0: 100b8: auipc x3, 1
19000000: system.cpu.writeback: REGISTERS
19000000: global: x0=0x00000000
19000000: global: x1=0x0001115c
19000000: global: x2=0x0001119c
19000000: global: x3=0x000110b8
19000000: global: x4=0xffffffab
19000000: global: x5=0x00000000
19000000: global: x6=0x00000000
19000000: global: x7=0x00000000
19000000: global: x8=0x00000000
19000000: global: x9=0x00000000
19000000: global: x10=0x00000000
19000000: global: x11=0x00000000
19000000: global: x12=0x00000000
19000000: global: x13=0x00000000
19000000: global: x14=0x00000000
19000000: global: x15=0x00000000
19000000: global: x16=0x00000000
19000000: global: x17=0x00000000
19000000: global: x18=0x00000000
19000000: global: x19=0x00000000
19000000: global: x20=0x00000000
19000000: global: x21=0x00000000
19000000: global: x22=0x00000000
19000000: global: x23=0x00000000
19000000: global: x24=0x00000000
19000000: global: x25=0x00000000
19000000: global: x26=0x00000000
19000000: global: x27=0x00000000
19000000: global: x28=0x00000000
19000000: global: x29=0x00000000
19000000: global: x30=0x00000000
19000000: global: x31=0x00000000
19000000: global: f0=0x00000000
19000000: global: f1=0x4019999a
19000000: global: f2=0x00000000
19000000: global: f3=0x00000000
19000000: global: f4=0x00000000
19000000: global: f5=0x00000000
19000000: global: f6=0x00000000
19000000: global: f7=0x00000000
19000000: global: f8=0x00000000
19000000: global: f9=0x00000000
19000000: global: f10=0x00000000
19000000: global: f11=0x00000000
19000000: global: f12=0x00000000
19000000: global: f13=0x00000000
19000000: global: f14=0x00000000
19000000: global: f15=0x00000000
19000000: global: f16=0x00000000
19000000: global: f17=0x00000000
19000000: global: f18=0x00000000
19000000: global: f19=0x00000000
19000000: global: f20=0x00000000
19000000: global: f21=0x00000000
19000000: global: f22=0x00000000
19000000: global: f23=0x00000000
19000000: global: f24=0x00000000
19000000: global: f25=0x00000000
19000000: global: f26=0x00000000
19000000: global: f27=0x00000000
19000000: global: f28=0x00000000
19000000: global: f29=0x00000000
19000000: global: f30=0x00000000
19000000: global: f31=0x00000000
19000000: system.cpu.memory: Log4GUI: memory: 19000000: 0: 100bc: addi x3, x3, 297
19000000: system.cpu.execute: Log4GUI: execute: 19000000: 0: 100c0: lb x5, 0(x3): 0
19000000: system.cpu.decode: Log4GUI: decode: 19000000: 0: 100c4: auipc x8, 1
19000000: system.cpu.fetch1: Log4GUI: fetch1: 19000000: 0: 100c8: <assembly>
20000000: system.cpu.writeback: Log4GUI: writeback: 20000000: 0: 100bc: addi x3, x3, 297
20000000: system.cpu.writeback: REGISTERS
20000000: global: x0=0x00000000
20000000: global: x1=0x0001115c
20000000: global: x2=0x0001119c
20000000: global: x3=0x000111e1
20000000: global: x4=0xffffffab
20000000: global: x5=0x00000000
20000000: global: x6=0x00000000
20000000: global: x7=0x00000000
20000000: global: x8=0x00000000
20000000: global: x9=0x00000000
20000000: global: x10=0x00000000
20000000: global: x11=0x00000000
20000000: global: x12=0x00000000
20000000: global: x13=0x00000000
20000000: global: x14=0x00000000
20000000: global: x15=0x00000000
20000000: global: x16=0x00000000
20000000: global: x17=0x00000000
20000000: global: x18=0x00000000
20000000: global: x19=0x00000000
20000000: global: x20=0x00000000
20000000: global: x21=0x00000000
20000000: global: x22=0x00000000
20000000: global: x23=0x00000000
20000000: global: x24=0x00000000
20000000: global: x25=0x00000000
20000000: global: x26=0x00000000
20000000: global: x27=0x00000000
20000000: global: x28=0x00000000
20000000: global: x29=0x00000000
20000000: global: x30=0x00000000
20000000: global: x31=0x00000000
20000000: global: f0=0x00000000
20000000: global: f1=0x4019999a
20000000: global: f2=0x00000000
20000000: global: f3=0x00000000
20000000: global: f4=0x00000000
20000000: global: f5=0x00000000
20000000: global: f6=0x00000000
20000000: global: f7=0x00000000
20000000: global: f8=0x00000000
20000000: global: f9=0x00000000
20000000: global: f10=0x00000000
20000000: global: f11=0x00000000
20000000: global: f12=0x00000000
20000000: global: f13=0x00000000
20000000: global: f14=0x00000000
20000000: global: f15=0x00000000
20000000: global: f16=0x00000000
20000000: global: f17=0x00000000
20000000: global: f18=0x00000000
20000000: global: f19=0x00000000
20000000: global: f20=0x00000000
20000000: global: f21=0x00000000
20000000: global: f22=0x00000000
20000000: global: f23=0x00000000
20000000: global: f24=0x00000000
20000000: global: f25=0x00000000
20000000: global: f26=0x00000000
20000000: global: f27=0x00000000
20000000: global: f28=0x00000000
20000000: global: f29=0x00000000
20000000: global: f30=0x00000000
20000000: global: f31=0x00000000
20000000: system.cpu.memory: Log4GUI: memory: 20000000: 0: 100c0: lb x5, 0(x3)
20000000: system.cpu.execute: Log4GUI: execute: 20000000: 0: 100c4: auipc x8, 1: 0
20000000: system.cpu.decode: Log4GUI: decode: 20000000: 0: 100c8: addi x8, x8, 281
20000000: system.cpu.fetch1: Log4GUI: fetch1: 20000000: 0: 100cc: <assembly>
21000000: system.cpu.writeback: Log4GUI: writeback: 21000000: 0: 100c0: lb x5, 0(x3)
21000000: system.cpu.writeback: REGISTERS
21000000: global: x0=0x00000000
21000000: global: x1=0x0001115c
21000000: global: x2=0x0001119c
21000000: global: x3=0x000111e1
21000000: global: x4=0xffffffab
21000000: global: x5=0x00000010
21000000: global: x6=0x00000000
21000000: global: x7=0x00000000
21000000: global: x8=0x00000000
21000000: global: x9=0x00000000
21000000: global: x10=0x00000000
21000000: global: x11=0x00000000
21000000: global: x12=0x00000000
21000000: global: x13=0x00000000
21000000: global: x14=0x00000000
21000000: global: x15=0x00000000
21000000: global: x16=0x00000000
21000000: global: x17=0x00000000
21000000: global: x18=0x00000000
21000000: global: x19=0x00000000
21000000: global: x20=0x00000000
21000000: global: x21=0x00000000
21000000: global: x22=0x00000000
21000000: global: x23=0x00000000
21000000: global: x24=0x00000000
21000000: global: x25=0x00000000
21000000: global: x26=0x00000000
21000000: global: x27=0x00000000
21000000: global: x28=0x00000000
21000000: global: x29=0x00000000
21000000: global: x30=0x00000000
21000000: global: x31=0x00000000
21000000: global: f0=0x00000000
21000000: global: f1=0x4019999a
21000000: global: f2=0x00000000
21000000: global: f3=0x00000000
21000000: global: f4=0x00000000
21000000: global: f5=0x00000000
21000000: global: f6=0x00000000
21000000: global: f7=0x00000000
21000000: global: f8=0x00000000
21000000: global: f9=0x00000000
21000000: global: f10=0x00000000
21000000: global: f11=0x00000000
21000000: global: f12=0x00000000
21000000: global: f13=0x00000000
21000000: global: f14=0x00000000
21000000: global: f15=0x00000000
21000000: global: f16=0x00000000
21000000: global: f17=0x00000000
21000000: global: f18=0x00000000
21000000: global: f19=0x00000000
21000000: global: f20=0x00000000
21000000: global: f21=0x00000000
21000000: global: f22=0x00000000
21000000: global: f23=0x00000000
21000000: global: f24=0x00000000
21000000: global: f25=0x00000000
21000000: global: f26=0x00000000
21000000: global: f27=0x00000000
21000000: global: f28=0x00000000
21000000: global: f29=0x00000000
21000000: global: f30=0x00000000
21000000: global: f31=0x00000000
21000000: system.cpu.memory: Log4GUI: memory: 21000000: 0: 100c4: auipc x8, 1
21000000: system.cpu.execute: Log4GUI: execute: 21000000: 0: 100c8: addi x8, x8, 281: 0
21000000: system.cpu.decode: Log4GUI: decode: 21000000: 0: 100cc: lw x9, 0(x8)
21000000: system.cpu.fetch1: Log4GUI: fetch1: 21000000: 0: 100d0: <assembly>
22000000: system.cpu.writeback: Log4GUI: writeback: 22000000: 0: 100c4: auipc x8, 1
22000000: system.cpu.writeback: REGISTERS
22000000: global: x0=0x00000000
22000000: global: x1=0x0001115c
22000000: global: x2=0x0001119c
22000000: global: x3=0x000111e1
22000000: global: x4=0xffffffab
22000000: global: x5=0x00000010
22000000: global: x6=0x00000000
22000000: global: x7=0x00000000
22000000: global: x8=0x000110c4
22000000: global: x9=0x00000000
22000000: global: x10=0x00000000
22000000: global: x11=0x00000000
22000000: global: x12=0x00000000
22000000: global: x13=0x00000000
22000000: global: x14=0x00000000
22000000: global: x15=0x00000000
22000000: global: x16=0x00000000
22000000: global: x17=0x00000000
22000000: global: x18=0x00000000
22000000: global: x19=0x00000000
22000000: global: x20=0x00000000
22000000: global: x21=0x00000000
22000000: global: x22=0x00000000
22000000: global: x23=0x00000000
22000000: global: x24=0x00000000
22000000: global: x25=0x00000000
22000000: global: x26=0x00000000
22000000: global: x27=0x00000000
22000000: global: x28=0x00000000
22000000: global: x29=0x00000000
22000000: global: x30=0x00000000
22000000: global: x31=0x00000000
22000000: global: f0=0x00000000
22000000: global: f1=0x4019999a
22000000: global: f2=0x00000000
22000000: global: f3=0x00000000
22000000: global: f4=0x00000000
22000000: global: f5=0x00000000
22000000: global: f6=0x00000000
22000000: global: f7=0x00000000
22000000: global: f8=0x00000000
22000000: global: f9=0x00000000
22000000: global: f10=0x00000000
22000000: global: f11=0x00000000
22000000: global: f12=0x00000000
22000000: global: f13=0x00000000
22000000: global: f14=0x00000000
22000000: global: f15=0x00000000
22000000: global: f16=0x00000000
22000000: global: f17=0x00000000
22000000: global: f18=0x00000000
22000000: global: f19=0x00000000
22000000: global: f20=0x00000000
22000000: global: f21=0x00000000
22000000: global: f22=0x00000000
22000000: global: f23=0x00000000
22000000: global: f24=0x00000000
22000000: global: f25=0x00000000
22000000: global: f26=0x00000000
22000000: global: f27=0x00000000
22000000: global: f28=0x00000000
22000000: global: f29=0x00000000
22000000: global: f30=0x00000000
22000000: global: f31=0x00000000
22000000: system.cpu.memory: Log4GUI: memory: 22000000: 0: 100c8: addi x8, x8, 281
22000000: system.cpu.execute: Log4GUI: execute: 22000000: 0: 100cc: lw x9, 0(x8): 0
22000000: system.cpu.decode: Log4GUI: decode: 22000000: 0: 100d0: auipc x11, 1
22000000: system.cpu.fetch1: Log4GUI: fetch1: 22000000: 0: 100d4: <assembly>
23000000: system.cpu.writeback: Log4GUI: writeback: 23000000: 0: 100c8: addi x8, x8, 281
23000000: system.cpu.writeback: REGISTERS
23000000: global: x0=0x00000000
23000000: global: x1=0x0001115c
23000000: global: x2=0x0001119c
23000000: global: x3=0x000111e1
23000000: global: x4=0xffffffab
23000000: global: x5=0x00000010
23000000: global: x6=0x00000000
23000000: global: x7=0x00000000
23000000: global: x8=0x000111dd
23000000: global: x9=0x00000000
23000000: global: x10=0x00000000
23000000: global: x11=0x00000000
23000000: global: x12=0x00000000
23000000: global: x13=0x00000000
23000000: global: x14=0x00000000
23000000: global: x15=0x00000000
23000000: global: x16=0x00000000
23000000: global: x17=0x00000000
23000000: global: x18=0x00000000
23000000: global: x19=0x00000000
23000000: global: x20=0x00000000
23000000: global: x21=0x00000000
23000000: global: x22=0x00000000
23000000: global: x23=0x00000000
23000000: global: x24=0x00000000
23000000: global: x25=0x00000000
23000000: global: x26=0x00000000
23000000: global: x27=0x00000000
23000000: global: x28=0x00000000
23000000: global: x29=0x00000000
23000000: global: x30=0x00000000
23000000: global: x31=0x00000000
23000000: global: f0=0x00000000
23000000: global: f1=0x4019999a
23000000: global: f2=0x00000000
23000000: global: f3=0x00000000
23000000: global: f4=0x00000000
23000000: global: f5=0x00000000
23000000: global: f6=0x00000000
23000000: global: f7=0x00000000
23000000: global: f8=0x00000000
23000000: global: f9=0x00000000
23000000: global: f10=0x00000000
23000000: global: f11=0x00000000
23000000: global: f12=0x00000000
23000000: global: f13=0x00000000
23000000: global: f14=0x00000000
23000000: global: f15=0x00000000
23000000: global: f16=0x00000000
23000000: global: f17=0x00000000
23000000: global: f18=0x00000000
23000000: global: f19=0x00000000
23000000: global: f20=0x00000000
23000000: global: f21=0x00000000
23000000: global: f22=0x00000000
23000000: global: f23=0x00000000
23000000: global: f24=0x00000000
23000000: global: f25=0x00000000
23000000: global: f26=0x00000000
23000000: global: f27=0x00000000
23000000: global: f28=0x00000000
23000000: global: f29=0x00000000
23000000: global: f30=0x00000000
23000000: global: f31=0x00000000
23000000: system.cpu.memory: Log4GUI: memory: 23000000: 0: 100cc: lw x9, 0(x8)
23000000: system.cpu.execute: Log4GUI: execute: 23000000: 0: 100d0: auipc x11, 1: 0
23000000: system.cpu.decode: Log4GUI: decode: 23000000: 0: 100d4: addi x11, x11, 268
23000000: system.cpu.fetch1: Log4GUI: fetch1: 23000000: 0: 100d8: <assembly>
24000000: system.cpu.writeback: Log4GUI: writeback: 24000000: 0: 100cc: lw x9, 0(x8)
24000000: system.cpu.writeback: REGISTERS
24000000: global: x0=0x00000000
24000000: global: x1=0x0001115c
24000000: global: x2=0x0001119c
24000000: global: x3=0x000111e1
24000000: global: x4=0xffffffab
24000000: global: x5=0x00000010
24000000: global: x6=0x00000000
24000000: global: x7=0x00000000
24000000: global: x8=0x000111dd
24000000: global: x9=0x7f800000
24000000: global: x10=0x00000000
24000000: global: x11=0x00000000
24000000: global: x12=0x00000000
24000000: global: x13=0x00000000
24000000: global: x14=0x00000000
24000000: global: x15=0x00000000
24000000: global: x16=0x00000000
24000000: global: x17=0x00000000
24000000: global: x18=0x00000000
24000000: global: x19=0x00000000
24000000: global: x20=0x00000000
24000000: global: x21=0x00000000
24000000: global: x22=0x00000000
24000000: global: x23=0x00000000
24000000: global: x24=0x00000000
24000000: global: x25=0x00000000
24000000: global: x26=0x00000000
24000000: global: x27=0x00000000
24000000: global: x28=0x00000000
24000000: global: x29=0x00000000
24000000: global: x30=0x00000000
24000000: global: x31=0x00000000
24000000: global: f0=0x00000000
24000000: global: f1=0x4019999a
24000000: global: f2=0x00000000
24000000: global: f3=0x00000000
24000000: global: f4=0x00000000
24000000: global: f5=0x00000000
24000000: global: f6=0x00000000
24000000: global: f7=0x00000000
24000000: global: f8=0x00000000
24000000: global: f9=0x00000000
24000000: global: f10=0x00000000
24000000: global: f11=0x00000000
24000000: global: f12=0x00000000
24000000: global: f13=0x00000000
24000000: global: f14=0x00000000
24000000: global: f15=0x00000000
24000000: global: f16=0x00000000
24000000: global: f17=0x00000000
24000000: global: f18=0x00000000
24000000: global: f19=0x00000000
24000000: global: f20=0x00000000
24000000: global: f21=0x00000000
24000000: global: f22=0x00000000
24000000: global: f23=0x00000000
24000000: global: f24=0x00000000
24000000: global: f25=0x00000000
24000000: global: f26=0x00000000
24000000: global: f27=0x00000000
24000000: global: f28=0x00000000
24000000: global: f29=0x00000000
24000000: global: f30=0x00000000
24000000: global: f31=0x00000000
24000000: system.cpu.memory: Log4GUI: memory: 24000000: 0: 100d0: auipc x11, 1
24000000: system.cpu.execute: Log4GUI: execute: 24000000: 0: 100d4: addi x11, x11, 268: 0
24000000: system.cpu.decode: Log4GUI: decode: 24000000: 0: 100d8: add x6, x0, x0
24000000: system.cpu.fetch1: Log4GUI: fetch1: 24000000: 0: 100dc: <assembly>
25000000: system.cpu.writeback: Log4GUI: writeback: 25000000: 0: 100d0: auipc x11, 1
25000000: system.cpu.writeback: REGISTERS
25000000: global: x0=0x00000000
25000000: global: x1=0x0001115c
25000000: global: x2=0x0001119c
25000000: global: x3=0x000111e1
25000000: global: x4=0xffffffab
25000000: global: x5=0x00000010
25000000: global: x6=0x00000000
25000000: global: x7=0x00000000
25000000: global: x8=0x000111dd
25000000: global: x9=0x7f800000
25000000: global: x10=0x00000000
25000000: global: x11=0x000110d0
25000000: global: x12=0x00000000
25000000: global: x13=0x00000000
25000000: global: x14=0x00000000
25000000: global: x15=0x00000000
25000000: global: x16=0x00000000
25000000: global: x17=0x00000000
25000000: global: x18=0x00000000
25000000: global: x19=0x00000000
25000000: global: x20=0x00000000
25000000: global: x21=0x00000000
25000000: global: x22=0x00000000
25000000: global: x23=0x00000000
25000000: global: x24=0x00000000
25000000: global: x25=0x00000000
25000000: global: x26=0x00000000
25000000: global: x27=0x00000000
25000000: global: x28=0x00000000
25000000: global: x29=0x00000000
25000000: global: x30=0x00000000
25000000: global: x31=0x00000000
25000000: global: f0=0x00000000
25000000: global: f1=0x4019999a
25000000: global: f2=0x00000000
25000000: global: f3=0x00000000
25000000: global: f4=0x00000000
25000000: global: f5=0x00000000
25000000: global: f6=0x00000000
25000000: global: f7=0x00000000
25000000: global: f8=0x00000000
25000000: global: f9=0x00000000
25000000: global: f10=0x00000000
25000000: global: f11=0x00000000
25000000: global: f12=0x00000000
25000000: global: f13=0x00000000
25000000: global: f14=0x00000000
25000000: global: f15=0x00000000
25000000: global: f16=0x00000000
25000000: global: f17=0x00000000
25000000: global: f18=0x00000000
25000000: global: f19=0x00000000
25000000: global: f20=0x00000000
25000000: global: f21=0x00000000
25000000: global: f22=0x00000000
25000000: global: f23=0x00000000
25000000: global: f24=0x00000000
25000000: global: f25=0x00000000
25000000: global: f26=0x00000000
25000000: global: f27=0x00000000
25000000: global: f28=0x00000000
25000000: global: f29=0x00000000
25000000: global: f30=0x00000000
25000000: global: f31=0x00000000
25000000: system.cpu.memory: Log4GUI: memory: 25000000: 0: 100d4: addi x11, x11, 268
25000000: system.cpu.execute: Log4GUI: execute: 25000000: 0: 100d8: add x6, x0, x0: 0
25000000: system.cpu.decode: Log4GUI: decode: 25000000: 0: 100dc: slli x7, x6, 2
25000000: system.cpu.fetch1: Log4GUI: fetch1: 25000000: 0: 100e0: <assembly>
26000000: system.cpu.writeback: Log4GUI: writeback: 26000000: 0: 100d4: addi x11, x11, 268
26000000: system.cpu.writeback: REGISTERS
26000000: global: x0=0x00000000
26000000: global: x1=0x0001115c
26000000: global: x2=0x0001119c
26000000: global: x3=0x000111e1
26000000: global: x4=0xffffffab
26000000: global: x5=0x00000010
26000000: global: x6=0x00000000
26000000: global: x7=0x00000000
26000000: global: x8=0x000111dd
26000000: global: x9=0x7f800000
26000000: global: x10=0x00000000
26000000: global: x11=0x000111dc
26000000: global: x12=0x00000000
26000000: global: x13=0x00000000
26000000: global: x14=0x00000000
26000000: global: x15=0x00000000
26000000: global: x16=0x00000000
26000000: global: x17=0x00000000
26000000: global: x18=0x00000000
26000000: global: x19=0x00000000
26000000: global: x20=0x00000000
26000000: global: x21=0x00000000
26000000: global: x22=0x00000000
26000000: global: x23=0x00000000
26000000: global: x24=0x00000000
26000000: global: x25=0x00000000
26000000: global: x26=0x00000000
26000000: global: x27=0x00000000
26000000: global: x28=0x00000000
26000000: global: x29=0x00000000
26000000: global: x30=0x00000000
26000000: global: x31=0x00000000
26000000: global: f0=0x00000000
26000000: global: f1=0x4019999a
26000000: global: f2=0x00000000
26000000: global: f3=0x00000000
26000000: global: f4=0x00000000
26000000: global: f5=0x00000000
26000000: global: f6=0x00000000
26000000: global: f7=0x00000000
26000000: global: f8=0x00000000
26000000: global: f9=0x00000000
26000000: global: f10=0x00000000
26000000: global: f11=0x00000000
26000000: global: f12=0x00000000
26000000: global: f13=0x00000000
26000000: global: f14=0x00000000
26000000: global: f15=0x00000000
26000000: global: f16=0x00000000
26000000: global: f17=0x00000000
26000000: global: f18=0x00000000
26000000: global: f19=0x00000000
26000000: global: f20=0x00000000
26000000: global: f21=0x00000000
26000000: global: f22=0x00000000
26000000: global: f23=0x00000000
26000000: global: f24=0x00000000
26000000: global: f25=0x00000000
26000000: global: f26=0x00000000
26000000: global: f27=0x00000000
26000000: global: f28=0x00000000
26000000: global: f29=0x00000000
26000000: global: f30=0x00000000
26000000: global: f31=0x00000000
26000000: system.cpu.memory: Log4GUI: memory: 26000000: 0: 100d8: add x6, x0, x0
26000000: system.cpu.execute: Log4GUI: execute: 26000000: 0: 100dc: slli x7, x6, 2: 0
26000000: system.cpu.decode: Log4GUI: decode: 26000000: 0: 100e0: fcvt_s_w f3, x4
26000000: system.cpu.fetch1: Log4GUI: fetch1: 26000000: 0: 100e4: <assembly>
27000000: system.cpu.writeback: Log4GUI: writeback: 27000000: 0: 100d8: add x6, x0, x0
27000000: system.cpu.writeback: REGISTERS
27000000: global: x0=0x00000000
27000000: global: x1=0x0001115c
27000000: global: x2=0x0001119c
27000000: global: x3=0x000111e1
27000000: global: x4=0xffffffab
27000000: global: x5=0x00000010
27000000: global: x6=0x00000000
27000000: global: x7=0x00000000
27000000: global: x8=0x000111dd
27000000: global: x9=0x7f800000
27000000: global: x10=0x00000000
27000000: global: x11=0x000111dc
27000000: global: x12=0x00000000
27000000: global: x13=0x00000000
27000000: global: x14=0x00000000
27000000: global: x15=0x00000000
27000000: global: x16=0x00000000
27000000: global: x17=0x00000000
27000000: global: x18=0x00000000
27000000: global: x19=0x00000000
27000000: global: x20=0x00000000
27000000: global: x21=0x00000000
27000000: global: x22=0x00000000
27000000: global: x23=0x00000000
27000000: global: x24=0x00000000
27000000: global: x25=0x00000000
27000000: global: x26=0x00000000
27000000: global: x27=0x00000000
27000000: global: x28=0x00000000
27000000: global: x29=0x00000000
27000000: global: x30=0x00000000
27000000: global: x31=0x00000000
27000000: global: f0=0x00000000
27000000: global: f1=0x4019999a
27000000: global: f2=0x00000000
27000000: global: f3=0x00000000
27000000: global: f4=0x00000000
27000000: global: f5=0x00000000
27000000: global: f6=0x00000000
27000000: global: f7=0x00000000
27000000: global: f8=0x00000000
27000000: global: f9=0x00000000
27000000: global: f10=0x00000000
27000000: global: f11=0x00000000
27000000: global: f12=0x00000000
27000000: global: f13=0x00000000
27000000: global: f14=0x00000000
27000000: global: f15=0x00000000
27000000: global: f16=0x00000000
27000000: global: f17=0x00000000
27000000: global: f18=0x00000000
27000000: global: f19=0x00000000
27000000: global: f20=0x00000000
27000000: global: f21=0x00000000
27000000: global: f22=0x00000000
27000000: global: f23=0x00000000
27000000: global: f24=0x00000000
27000000: global: f25=0x00000000
27000000: global: f26=0x00000000
27000000: global: f27=0x00000000
27000000: global: f28=0x00000000
27000000: global: f29=0x00000000
27000000: global: f30=0x00000000
27000000: global: f31=0x00000000
27000000: system.cpu.memory: Log4GUI: memory: 27000000: 0: 100dc: slli x7, x6, 2
27000000: system.cpu.execute: Log4GUI: execute: 27000000: 0: 100e0: fcvt_s_w f3, x4: 3
27000000: system.cpu.decode: Log4GUI: decode: 27000000: 0: 100e4: fmv_w_x f5, x0
27000000: system.cpu.fetch1: Log4GUI: fetch1: 27000000: 0: 100e8: <assembly>
28000000: system.cpu.writeback: Log4GUI: writeback: 28000000: 0: 100dc: slli x7, x6, 2
28000000: system.cpu.writeback: REGISTERS
28000000: global: x0=0x00000000
28000000: global: x1=0x0001115c
28000000: global: x2=0x0001119c
28000000: global: x3=0x000111e1
28000000: global: x4=0xffffffab
28000000: global: x5=0x00000010
28000000: global: x6=0x00000000
28000000: global: x7=0x00000000
28000000: global: x8=0x000111dd
28000000: global: x9=0x7f800000
28000000: global: x10=0x00000000
28000000: global: x11=0x000111dc
28000000: global: x12=0x00000000
28000000: global: x13=0x00000000
28000000: global: x14=0x00000000
28000000: global: x15=0x00000000
28000000: global: x16=0x00000000
28000000: global: x17=0x00000000
28000000: global: x18=0x00000000
28000000: global: x19=0x00000000
28000000: global: x20=0x00000000
28000000: global: x21=0x00000000
28000000: global: x22=0x00000000
28000000: global: x23=0x00000000
28000000: global: x24=0x00000000
28000000: global: x25=0x00000000
28000000: global: x26=0x00000000
28000000: global: x27=0x00000000
28000000: global: x28=0x00000000
28000000: global: x29=0x00000000
28000000: global: x30=0x00000000
28000000: global: x31=0x00000000
28000000: global: f0=0x00000000
28000000: global: f1=0x4019999a
28000000: global: f2=0x00000000
28000000: global: f3=0x00000000
28000000: global: f4=0x00000000
28000000: global: f5=0x00000000
28000000: global: f6=0x00000000
28000000: global: f7=0x00000000
28000000: global: f8=0x00000000
28000000: global: f9=0x00000000
28000000: global: f10=0x00000000
28000000: global: f11=0x00000000
28000000: global: f12=0x00000000
28000000: global: f13=0x00000000
28000000: global: f14=0x00000000
28000000: global: f15=0x00000000
28000000: global: f16=0x00000000
28000000: global: f17=0x00000000
28000000: global: f18=0x00000000
28000000: global: f19=0x00000000
28000000: global: f20=0x00000000
28000000: global: f21=0x00000000
28000000: global: f22=0x00000000
28000000: global: f23=0x00000000
28000000: global: f24=0x00000000
28000000: global: f25=0x00000000
28000000: global: f26=0x00000000
28000000: global: f27=0x00000000
28000000: global: f28=0x00000000
28000000: global: f29=0x00000000
28000000: global: f30=0x00000000
28000000: global: f31=0x00000000
28000000: system.cpu.execute: Log4GUI: execute: 28000000: 0: 100e4: fmv_w_x f5, x0: 3
28000000: system.cpu.execute: Log4GUI: execute: 28000000: 0: 100e0: fcvt_s_w f3, x4: 3
28000000: system.cpu.decode: Log4GUI: decode: 28000000: 0: 100e8: beq x6, x5, 72
28000000: system.cpu.fetch1: Log4GUI: fetch1: 28000000: 0: 100ec: <assembly>
29000000: system.cpu.execute: Log4GUI: execute: 29000000: 0: 100e8: beq x6, x5, 72: 0
29000000: system.cpu.execute: Log4GUI: execute: 29000000: 0: 100e0: fcvt_s_w f3, x4: 3
29000000: system.cpu.execute: Log4GUI: execute: 29000000: 0: 100e4: fmv_w_x f5, x0: 3
29000000: system.cpu.decode: Log4GUI: decode: 29000000: 0: 100ec: add x12, x1, x7
29000000: system.cpu.fetch1: Log4GUI: fetch1: 29000000: 0: 100f0: <assembly>
30000000: system.cpu.memory: Log4GUI: memory: 30000000: 0: 100e8: beq x6, x5, 72
30000000: system.cpu.execute: Log4GUI: execute: 30000000: 0: 100ec: add x12, x1, x7: 0
30000000: system.cpu.execute: Log4GUI: execute: 30000000: 0: 100e0: fcvt_s_w f3, x4: 3
30000000: system.cpu.execute: Log4GUI: execute: 30000000: 0: 100e4: fmv_w_x f5, x0: 3
30000000: system.cpu.decode: Log4GUI: decode: 30000000: 0: 100f0: flw f1, 0(x12)
30000000: system.cpu.fetch1: Log4GUI: fetch1: 30000000: 0: 100f4: <assembly>
31000000: system.cpu.writeback: Log4GUI: writeback: 31000000: 0: 100e8: beq x6, x5, 72
31000000: system.cpu.writeback: REGISTERS
31000000: global: x0=0x00000000
31000000: global: x1=0x0001115c
31000000: global: x2=0x0001119c
31000000: global: x3=0x000111e1
31000000: global: x4=0xffffffab
31000000: global: x5=0x00000010
31000000: global: x6=0x00000000
31000000: global: x7=0x00000000
31000000: global: x8=0x000111dd
31000000: global: x9=0x7f800000
31000000: global: x10=0x00000000
31000000: global: x11=0x000111dc
31000000: global: x12=0x00000000
31000000: global: x13=0x00000000
31000000: global: x14=0x00000000
31000000: global: x15=0x00000000
31000000: global: x16=0x00000000
31000000: global: x17=0x00000000
31000000: global: x18=0x00000000
31000000: global: x19=0x00000000
31000000: global: x20=0x00000000
31000000: global: x21=0x00000000
31000000: global: x22=0x00000000
31000000: global: x23=0x00000000
31000000: global: x24=0x00000000
31000000: global: x25=0x00000000
31000000: global: x26=0x00000000
31000000: global: x27=0x00000000
31000000: global: x28=0x00000000
31000000: global: x29=0x00000000
31000000: global: x30=0x00000000
31000000: global: x31=0x00000000
31000000: global: f0=0x00000000
31000000: global: f1=0x4019999a
31000000: global: f2=0x00000000
31000000: global: f3=0x00000000
31000000: global: f4=0x00000000
31000000: global: f5=0x00000000
31000000: global: f6=0x00000000
31000000: global: f7=0x00000000
31000000: global: f8=0x00000000
31000000: global: f9=0x00000000
31000000: global: f10=0x00000000
31000000: global: f11=0x00000000
31000000: global: f12=0x00000000
31000000: global: f13=0x00000000
31000000: global: f14=0x00000000
31000000: global: f15=0x00000000
31000000: global: f16=0x00000000
31000000: global: f17=0x00000000
31000000: global: f18=0x00000000
31000000: global: f19=0x00000000
31000000: global: f20=0x00000000
31000000: global: f21=0x00000000
31000000: global: f22=0x00000000
31000000: global: f23=0x00000000
31000000: global: f24=0x00000000
31000000: global: f25=0x00000000
31000000: global: f26=0x00000000
31000000: global: f27=0x00000000
31000000: global: f28=0x00000000
31000000: global: f29=0x00000000
31000000: global: f30=0x00000000
31000000: global: f31=0x00000000
31000000: system.cpu.memory: Log4GUI: memory: 31000000: 0: 100e0: fcvt_s_w f3, x4
31000000: system.cpu.execute: Log4GUI: execute: 31000000: 0: 100e4: fmv_w_x f5, x0: 3
31000000: system.cpu.execute: Log4GUI: execute: 31000000: 1: 100ec: add x12, x1, x7: 0
31000000: system.cpu.decode: Log4GUI: decode: 31000000: 1: 100f0: flw f1, 0(x12)
31000000: system.cpu.fetch1: Log4GUI: fetch1: 31000000: 1: 100f4: <assembly>
32000000: system.cpu.writeback: Log4GUI: writeback: 32000000: 0: 100e0: fcvt_s_w f3, x4
32000000: system.cpu.writeback: REGISTERS
32000000: global: x0=0x00000000
32000000: global: x1=0x0001115c
32000000: global: x2=0x0001119c
32000000: global: x3=0x000111e1
32000000: global: x4=0xffffffab
32000000: global: x5=0x00000010
32000000: global: x6=0x00000000
32000000: global: x7=0x00000000
32000000: global: x8=0x000111dd
32000000: global: x9=0x7f800000
32000000: global: x10=0x00000000
32000000: global: x11=0x000111dc
32000000: global: x12=0x00000000
32000000: global: x13=0x00000000
32000000: global: x14=0x00000000
32000000: global: x15=0x00000000
32000000: global: x16=0x00000000
32000000: global: x17=0x00000000
32000000: global: x18=0x00000000
32000000: global: x19=0x00000000
32000000: global: x20=0x00000000
32000000: global: x21=0x00000000
32000000: global: x22=0x00000000
32000000: global: x23=0x00000000
32000000: global: x24=0x00000000
32000000: global: x25=0x00000000
32000000: global: x26=0x00000000
32000000: global: x27=0x00000000
32000000: global: x28=0x00000000
32000000: global: x29=0x00000000
32000000: global: x30=0x00000000
32000000: global: x31=0x00000000
32000000: global: f0=0x00000000
32000000: global: f1=0x4019999a
32000000: global: f2=0x00000000
32000000: global: f3=0xc2aa0000
32000000: global: f4=0x00000000
32000000: global: f5=0x00000000
32000000: global: f6=0x00000000
32000000: global: f7=0x00000000
32000000: global: f8=0x00000000
32000000: global: f9=0x00000000
32000000: global: f10=0x00000000
32000000: global: f11=0x00000000
32000000: global: f12=0x00000000
32000000: global: f13=0x00000000
32000000: global: f14=0x00000000
32000000: global: f15=0x00000000
32000000: global: f16=0x00000000
32000000: global: f17=0x00000000
32000000: global: f18=0x00000000
32000000: global: f19=0x00000000
32000000: global: f20=0x00000000
32000000: global: f21=0x00000000
32000000: global: f22=0x00000000
32000000: global: f23=0x00000000
32000000: global: f24=0x00000000
32000000: global: f25=0x00000000
32000000: global: f26=0x00000000
32000000: global: f27=0x00000000
32000000: global: f28=0x00000000
32000000: global: f29=0x00000000
32000000: global: f30=0x00000000
32000000: global: f31=0x00000000
32000000: system.cpu.memory: Log4GUI: memory: 32000000: 0: 100e4: fmv_w_x f5, x0
32000000: system.cpu.decode: Log4GUI: decode: 32000000: 1: 100f0: flw f1, 0(x12)
32000000: system.cpu.fetch1: Log4GUI: fetch1: 32000000: 1: 100f4: <assembly>
33000000: system.cpu.writeback: Log4GUI: writeback: 33000000: 0: 100e4: fmv_w_x f5, x0
33000000: system.cpu.writeback: REGISTERS
33000000: global: x0=0x00000000
33000000: global: x1=0x0001115c
33000000: global: x2=0x0001119c
33000000: global: x3=0x000111e1
33000000: global: x4=0xffffffab
33000000: global: x5=0x00000010
33000000: global: x6=0x00000000
33000000: global: x7=0x00000000
33000000: global: x8=0x000111dd
33000000: global: x9=0x7f800000
33000000: global: x10=0x00000000
33000000: global: x11=0x000111dc
33000000: global: x12=0x00000000
33000000: global: x13=0x00000000
33000000: global: x14=0x00000000
33000000: global: x15=0x00000000
33000000: global: x16=0x00000000
33000000: global: x17=0x00000000
33000000: global: x18=0x00000000
33000000: global: x19=0x00000000
33000000: global: x20=0x00000000
33000000: global: x21=0x00000000
33000000: global: x22=0x00000000
33000000: global: x23=0x00000000
33000000: global: x24=0x00000000
33000000: global: x25=0x00000000
33000000: global: x26=0x00000000
33000000: global: x27=0x00000000
33000000: global: x28=0x00000000
33000000: global: x29=0x00000000
33000000: global: x30=0x00000000
33000000: global: x31=0x00000000
33000000: global: f0=0x00000000
33000000: global: f1=0x4019999a
33000000: global: f2=0x00000000
33000000: global: f3=0xc2aa0000
33000000: global: f4=0x00000000
33000000: global: f5=0x00000000
33000000: global: f6=0x00000000
33000000: global: f7=0x00000000
33000000: global: f8=0x00000000
33000000: global: f9=0x00000000
33000000: global: f10=0x00000000
33000000: global: f11=0x00000000
33000000: global: f12=0x00000000
33000000: global: f13=0x00000000
33000000: global: f14=0x00000000
33000000: global: f15=0x00000000
33000000: global: f16=0x00000000
33000000: global: f17=0x00000000
33000000: global: f18=0x00000000
33000000: global: f19=0x00000000
33000000: global: f20=0x00000000
33000000: global: f21=0x00000000
33000000: global: f22=0x00000000
33000000: global: f23=0x00000000
33000000: global: f24=0x00000000
33000000: global: f25=0x00000000
33000000: global: f26=0x00000000
33000000: global: f27=0x00000000
33000000: global: f28=0x00000000
33000000: global: f29=0x00000000
33000000: global: f30=0x00000000
33000000: global: f31=0x00000000
33000000: system.cpu.memory: Log4GUI: memory: 33000000: 0: 100ec: add x12, x1, x7
33000000: system.cpu.execute: Log4GUI: execute: 33000000: 0: 100f0: flw f1, 0(x12): 0
33000000: system.cpu.decode: Log4GUI: decode: 33000000: 0: 100f4: add x12, x2, x7
33000000: system.cpu.fetch1: Log4GUI: fetch1: 33000000: 0: 100f8: <assembly>
34000000: system.cpu.writeback: Log4GUI: writeback: 34000000: 0: 100ec: add x12, x1, x7
34000000: system.cpu.writeback: REGISTERS
34000000: global: x0=0x00000000
34000000: global: x1=0x0001115c
34000000: global: x2=0x0001119c
34000000: global: x3=0x000111e1
34000000: global: x4=0xffffffab
34000000: global: x5=0x00000010
34000000: global: x6=0x00000000
34000000: global: x7=0x00000000
34000000: global: x8=0x000111dd
34000000: global: x9=0x7f800000
34000000: global: x10=0x00000000
34000000: global: x11=0x000111dc
34000000: global: x12=0x0001115c
34000000: global: x13=0x00000000
34000000: global: x14=0x00000000
34000000: global: x15=0x00000000
34000000: global: x16=0x00000000
34000000: global: x17=0x00000000
34000000: global: x18=0x00000000
34000000: global: x19=0x00000000
34000000: global: x20=0x00000000
34000000: global: x21=0x00000000
34000000: global: x22=0x00000000
34000000: global: x23=0x00000000
34000000: global: x24=0x00000000
34000000: global: x25=0x00000000
34000000: global: x26=0x00000000
34000000: global: x27=0x00000000
34000000: global: x28=0x00000000
34000000: global: x29=0x00000000
34000000: global: x30=0x00000000
34000000: global: x31=0x00000000
34000000: global: f0=0x00000000
34000000: global: f1=0x4019999a
34000000: global: f2=0x00000000
34000000: global: f3=0xc2aa0000
34000000: global: f4=0x00000000
34000000: global: f5=0x00000000
34000000: global: f6=0x00000000
34000000: global: f7=0x00000000
34000000: global: f8=0x00000000
34000000: global: f9=0x00000000
34000000: global: f10=0x00000000
34000000: global: f11=0x00000000
34000000: global: f12=0x00000000
34000000: global: f13=0x00000000
34000000: global: f14=0x00000000
34000000: global: f15=0x00000000
34000000: global: f16=0x00000000
34000000: global: f17=0x00000000
34000000: global: f18=0x00000000
34000000: global: f19=0x00000000
34000000: global: f20=0x00000000
34000000: global: f21=0x00000000
34000000: global: f22=0x00000000
34000000: global: f23=0x00000000
34000000: global: f24=0x00000000
34000000: global: f25=0x00000000
34000000: global: f26=0x00000000
34000000: global: f27=0x00000000
34000000: global: f28=0x00000000
34000000: global: f29=0x00000000
34000000: global: f30=0x00000000
34000000: global: f31=0x00000000
34000000: system.cpu.memory: Log4GUI: memory: 34000000: 0: 100f0: flw f1, 0(x12)
34000000: system.cpu.execute: Log4GUI: execute: 34000000: 0: 100f4: add x12, x2, x7: 0
34000000: system.cpu.decode: Log4GUI: decode: 34000000: 0: 100f8: flw f2, 0(x12)
34000000: system.cpu.fetch1: Log4GUI: fetch1: 34000000: 0: 100fc: <assembly>
35000000: system.cpu.writeback: Log4GUI: writeback: 35000000: 0: 100f0: flw f1, 0(x12)
35000000: system.cpu.writeback: REGISTERS
35000000: global: x0=0x00000000
35000000: global: x1=0x0001115c
35000000: global: x2=0x0001119c
35000000: global: x3=0x000111e1
35000000: global: x4=0xffffffab
35000000: global: x5=0x00000010
35000000: global: x6=0x00000000
35000000: global: x7=0x00000000
35000000: global: x8=0x000111dd
35000000: global: x9=0x7f800000
35000000: global: x10=0x00000000
35000000: global: x11=0x000111dc
35000000: global: x12=0x0001115c
35000000: global: x13=0x00000000
35000000: global: x14=0x00000000
35000000: global: x15=0x00000000
35000000: global: x16=0x00000000
35000000: global: x17=0x00000000
35000000: global: x18=0x00000000
35000000: global: x19=0x00000000
35000000: global: x20=0x00000000
35000000: global: x21=0x00000000
35000000: global: x22=0x00000000
35000000: global: x23=0x00000000
35000000: global: x24=0x00000000
35000000: global: x25=0x00000000
35000000: global: x26=0x00000000
35000000: global: x27=0x00000000
35000000: global: x28=0x00000000
35000000: global: x29=0x00000000
35000000: global: x30=0x00000000
35000000: global: x31=0x00000000
35000000: global: f0=0x00000000
35000000: global: f1=0x40933333
35000000: global: f2=0x00000000
35000000: global: f3=0xc2aa0000
35000000: global: f4=0x00000000
35000000: global: f5=0x00000000
35000000: global: f6=0x00000000
35000000: global: f7=0x00000000
35000000: global: f8=0x00000000
35000000: global: f9=0x00000000
35000000: global: f10=0x00000000
35000000: global: f11=0x00000000
35000000: global: f12=0x00000000
35000000: global: f13=0x00000000
35000000: global: f14=0x00000000
35000000: global: f15=0x00000000
35000000: global: f16=0x00000000
35000000: global: f17=0x00000000
35000000: global: f18=0x00000000
35000000: global: f19=0x00000000
35000000: global: f20=0x00000000
35000000: global: f21=0x00000000
35000000: global: f22=0x00000000
35000000: global: f23=0x00000000
35000000: global: f24=0x00000000
35000000: global: f25=0x00000000
35000000: global: f26=0x00000000
35000000: global: f27=0x00000000
35000000: global: f28=0x00000000
35000000: global: f29=0x00000000
35000000: global: f30=0x00000000
35000000: global: f31=0x00000000
35000000: system.cpu.memory: Log4GUI: memory: 35000000: 0: 100f4: add x12, x2, x7
35000000: system.cpu.execute: Log4GUI: execute: 35000000: 0: 100f8: flw f2, 0(x12): 0
35000000: system.cpu.decode: Log4GUI: decode: 35000000: 0: 100fc: addi x6, x6, 1
35000000: system.cpu.fetch1: Log4GUI: fetch1: 35000000: 0: 10100: <assembly>
36000000: system.cpu.writeback: Log4GUI: writeback: 36000000: 0: 100f4: add x12, x2, x7
36000000: system.cpu.writeback: REGISTERS
36000000: global: x0=0x00000000
36000000: global: x1=0x0001115c
36000000: global: x2=0x0001119c
36000000: global: x3=0x000111e1
36000000: global: x4=0xffffffab
36000000: global: x5=0x00000010
36000000: global: x6=0x00000000
36000000: global: x7=0x00000000
36000000: global: x8=0x000111dd
36000000: global: x9=0x7f800000
36000000: global: x10=0x00000000
36000000: global: x11=0x000111dc
36000000: global: x12=0x0001119c
36000000: global: x13=0x00000000
36000000: global: x14=0x00000000
36000000: global: x15=0x00000000
36000000: global: x16=0x00000000
36000000: global: x17=0x00000000
36000000: global: x18=0x00000000
36000000: global: x19=0x00000000
36000000: global: x20=0x00000000
36000000: global: x21=0x00000000
36000000: global: x22=0x00000000
36000000: global: x23=0x00000000
36000000: global: x24=0x00000000
36000000: global: x25=0x00000000
36000000: global: x26=0x00000000
36000000: global: x27=0x00000000
36000000: global: x28=0x00000000
36000000: global: x29=0x00000000
36000000: global: x30=0x00000000
36000000: global: x31=0x00000000
36000000: global: f0=0x00000000
36000000: global: f1=0x40933333
36000000: global: f2=0x00000000
36000000: global: f3=0xc2aa0000
36000000: global: f4=0x00000000
36000000: global: f5=0x00000000
36000000: global: f6=0x00000000
36000000: global: f7=0x00000000
36000000: global: f8=0x00000000
36000000: global: f9=0x00000000
36000000: global: f10=0x00000000
36000000: global: f11=0x00000000
36000000: global: f12=0x00000000
36000000: global: f13=0x00000000
36000000: global: f14=0x00000000
36000000: global: f15=0x00000000
36000000: global: f16=0x00000000
36000000: global: f17=0x00000000
36000000: global: f18=0x00000000
36000000: global: f19=0x00000000
36000000: global: f20=0x00000000
36000000: global: f21=0x00000000
36000000: global: f22=0x00000000
36000000: global: f23=0x00000000
36000000: global: f24=0x00000000
36000000: global: f25=0x00000000
36000000: global: f26=0x00000000
36000000: global: f27=0x00000000
36000000: global: f28=0x00000000
36000000: global: f29=0x00000000
36000000: global: f30=0x00000000
36000000: global: f31=0x00000000
36000000: system.cpu.memory: Log4GUI: memory: 36000000: 0: 100f8: flw f2, 0(x12)
36000000: system.cpu.execute: Log4GUI: execute: 36000000: 0: 100fc: addi x6, x6, 1: 0
36000000: system.cpu.decode: Log4GUI: decode: 36000000: 0: 10100: slli x7, x6, 2
36000000: system.cpu.fetch1: Log4GUI: fetch1: 36000000: 0: 10104: <assembly>
37000000: system.cpu.writeback: Log4GUI: writeback: 37000000: 0: 100f8: flw f2, 0(x12)
37000000: system.cpu.writeback: REGISTERS
37000000: global: x0=0x00000000
37000000: global: x1=0x0001115c
37000000: global: x2=0x0001119c
37000000: global: x3=0x000111e1
37000000: global: x4=0xffffffab
37000000: global: x5=0x00000010
37000000: global: x6=0x00000000
37000000: global: x7=0x00000000
37000000: global: x8=0x000111dd
37000000: global: x9=0x7f800000
37000000: global: x10=0x00000000
37000000: global: x11=0x000111dc
37000000: global: x12=0x0001119c
37000000: global: x13=0x00000000
37000000: global: x14=0x00000000
37000000: global: x15=0x00000000
37000000: global: x16=0x00000000
37000000: global: x17=0x00000000
37000000: global: x18=0x00000000
37000000: global: x19=0x00000000
37000000: global: x20=0x00000000
37000000: global: x21=0x00000000
37000000: global: x22=0x00000000
37000000: global: x23=0x00000000
37000000: global: x24=0x00000000
37000000: global: x25=0x00000000
37000000: global: x26=0x00000000
37000000: global: x27=0x00000000
37000000: global: x28=0x00000000
37000000: global: x29=0x00000000
37000000: global: x30=0x00000000
37000000: global: x31=0x00000000
37000000: global: f0=0x00000000
37000000: global: f1=0x40933333
37000000: global: f2=0x4019999a
37000000: global: f3=0xc2aa0000
37000000: global: f4=0x00000000
37000000: global: f5=0x00000000
37000000: global: f6=0x00000000
37000000: global: f7=0x00000000
37000000: global: f8=0x00000000
37000000: global: f9=0x00000000
37000000: global: f10=0x00000000
37000000: global: f11=0x00000000
37000000: global: f12=0x00000000
37000000: global: f13=0x00000000
37000000: global: f14=0x00000000
37000000: global: f15=0x00000000
37000000: global: f16=0x00000000
37000000: global: f17=0x00000000
37000000: global: f18=0x00000000
37000000: global: f19=0x00000000
37000000: global: f20=0x00000000
37000000: global: f21=0x00000000
37000000: global: f22=0x00000000
37000000: global: f23=0x00000000
37000000: global: f24=0x00000000
37000000: global: f25=0x00000000
37000000: global: f26=0x00000000
37000000: global: f27=0x00000000
37000000: global: f28=0x00000000
37000000: global: f29=0x00000000
37000000: global: f30=0x00000000
37000000: global: f31=0x00000000
37000000: system.cpu.memory: Log4GUI: memory: 37000000: 0: 100fc: addi x6, x6, 1
37000000: system.cpu.execute: Log4GUI: execute: 37000000: 0: 10100: slli x7, x6, 2: 0
37000000: system.cpu.decode: Log4GUI: decode: 37000000: 0: 10104: add x12, x1, x7
37000000: system.cpu.fetch1: Log4GUI: fetch1: 37000000: 0: 10108: <assembly>
38000000: system.cpu.writeback: Log4GUI: writeback: 38000000: 0: 100fc: addi x6, x6, 1
38000000: system.cpu.writeback: REGISTERS
38000000: global: x0=0x00000000
38000000: global: x1=0x0001115c
38000000: global: x2=0x0001119c
38000000: global: x3=0x000111e1
38000000: global: x4=0xffffffab
38000000: global: x5=0x00000010
38000000: global: x6=0x00000001
38000000: global: x7=0x00000000
38000000: global: x8=0x000111dd
38000000: global: x9=0x7f800000
38000000: global: x10=0x00000000
38000000: global: x11=0x000111dc
38000000: global: x12=0x0001119c
38000000: global: x13=0x00000000
38000000: global: x14=0x00000000
38000000: global: x15=0x00000000
38000000: global: x16=0x00000000
38000000: global: x17=0x00000000
38000000: global: x18=0x00000000
38000000: global: x19=0x00000000
38000000: global: x20=0x00000000
38000000: global: x21=0x00000000
38000000: global: x22=0x00000000
38000000: global: x23=0x00000000
38000000: global: x24=0x00000000
38000000: global: x25=0x00000000
38000000: global: x26=0x00000000
38000000: global: x27=0x00000000
38000000: global: x28=0x00000000
38000000: global: x29=0x00000000
38000000: global: x30=0x00000000
38000000: global: x31=0x00000000
38000000: global: f0=0x00000000
38000000: global: f1=0x40933333
38000000: global: f2=0x4019999a
38000000: global: f3=0xc2aa0000
38000000: global: f4=0x00000000
38000000: global: f5=0x00000000
38000000: global: f6=0x00000000
38000000: global: f7=0x00000000
38000000: global: f8=0x00000000
38000000: global: f9=0x00000000
38000000: global: f10=0x00000000
38000000: global: f11=0x00000000
38000000: global: f12=0x00000000
38000000: global: f13=0x00000000
38000000: global: f14=0x00000000
38000000: global: f15=0x00000000
38000000: global: f16=0x00000000
38000000: global: f17=0x00000000
38000000: global: f18=0x00000000
38000000: global: f19=0x00000000
38000000: global: f20=0x00000000
38000000: global: f21=0x00000000
38000000: global: f22=0x00000000
38000000: global: f23=0x00000000
38000000: global: f24=0x00000000
38000000: global: f25=0x00000000
38000000: global: f26=0x00000000
38000000: global: f27=0x00000000
38000000: global: f28=0x00000000
38000000: global: f29=0x00000000
38000000: global: f30=0x00000000
38000000: global: f31=0x00000000
38000000: system.cpu.memory: Log4GUI: memory: 38000000: 0: 10100: slli x7, x6, 2
38000000: system.cpu.execute: Log4GUI: execute: 38000000: 0: 10104: add x12, x1, x7: 0
38000000: system.cpu.decode: Log4GUI: decode: 38000000: 0: 10108: flw f6, 0(x12)
38000000: system.cpu.fetch1: Log4GUI: fetch1: 38000000: 0: 1010c: <assembly>
39000000: system.cpu.writeback: Log4GUI: writeback: 39000000: 0: 10100: slli x7, x6, 2
39000000: system.cpu.writeback: REGISTERS
39000000: global: x0=0x00000000
39000000: global: x1=0x0001115c
39000000: global: x2=0x0001119c
39000000: global: x3=0x000111e1
39000000: global: x4=0xffffffab
39000000: global: x5=0x00000010
39000000: global: x6=0x00000001
39000000: global: x7=0x00000004
39000000: global: x8=0x000111dd
39000000: global: x9=0x7f800000
39000000: global: x10=0x00000000
39000000: global: x11=0x000111dc
39000000: global: x12=0x0001119c
39000000: global: x13=0x00000000
39000000: global: x14=0x00000000
39000000: global: x15=0x00000000
39000000: global: x16=0x00000000
39000000: global: x17=0x00000000
39000000: global: x18=0x00000000
39000000: global: x19=0x00000000
39000000: global: x20=0x00000000
39000000: global: x21=0x00000000
39000000: global: x22=0x00000000
39000000: global: x23=0x00000000
39000000: global: x24=0x00000000
39000000: global: x25=0x00000000
39000000: global: x26=0x00000000
39000000: global: x27=0x00000000
39000000: global: x28=0x00000000
39000000: global: x29=0x00000000
39000000: global: x30=0x00000000
39000000: global: x31=0x00000000
39000000: global: f0=0x00000000
39000000: global: f1=0x40933333
39000000: global: f2=0x4019999a
39000000: global: f3=0xc2aa0000
39000000: global: f4=0x00000000
39000000: global: f5=0x00000000
39000000: global: f6=0x00000000
39000000: global: f7=0x00000000
39000000: global: f8=0x00000000
39000000: global: f9=0x00000000
39000000: global: f10=0x00000000
39000000: global: f11=0x00000000
39000000: global: f12=0x00000000
39000000: global: f13=0x00000000
39000000: global: f14=0x00000000
39000000: global: f15=0x00000000
39000000: global: f16=0x00000000
39000000: global: f17=0x00000000
39000000: global: f18=0x00000000
39000000: global: f19=0x00000000
39000000: global: f20=0x00000000
39000000: global: f21=0x00000000
39000000: global: f22=0x00000000
39000000: global: f23=0x00000000
39000000: global: f24=0x00000000
39000000: global: f25=0x00000000
39000000: global: f26=0x00000000
39000000: global: f27=0x00000000
39000000: global: f28=0x00000000
39000000: global: f29=0x00000000
39000000: global: f30=0x00000000
39000000: global: f31=0x00000000
39000000: system.cpu.memory: Log4GUI: memory: 39000000: 0: 10104: add x12, x1, x7
39000000: system.cpu.execute: Log4GUI: execute: 39000000: 0: 10108: flw f6, 0(x12): 0
39000000: system.cpu.decode: Log4GUI: decode: 39000000: 0: 1010c: add x12, x2, x7
39000000: system.cpu.fetch1: Log4GUI: fetch1: 39000000: 0: 10110: <assembly>
40000000: system.cpu.writeback: Log4GUI: writeback: 40000000: 0: 10104: add x12, x1, x7
40000000: system.cpu.writeback: REGISTERS
40000000: global: x0=0x00000000
40000000: global: x1=0x0001115c
40000000: global: x2=0x0001119c
40000000: global: x3=0x000111e1
40000000: global: x4=0xffffffab
40000000: global: x5=0x00000010
40000000: global: x6=0x00000001
40000000: global: x7=0x00000004
40000000: global: x8=0x000111dd
40000000: global: x9=0x7f800000
40000000: global: x10=0x00000000
40000000: global: x11=0x000111dc
40000000: global: x12=0x00011160
40000000: global: x13=0x00000000
40000000: global: x14=0x00000000
40000000: global: x15=0x00000000
40000000: global: x16=0x00000000
40000000: global: x17=0x00000000
40000000: global: x18=0x00000000
40000000: global: x19=0x00000000
40000000: global: x20=0x00000000
40000000: global: x21=0x00000000
40000000: global: x22=0x00000000
40000000: global: x23=0x00000000
40000000: global: x24=0x00000000
40000000: global: x25=0x00000000
40000000: global: x26=0x00000000
40000000: global: x27=0x00000000
40000000: global: x28=0x00000000
40000000: global: x29=0x00000000
40000000: global: x30=0x00000000
40000000: global: x31=0x00000000
40000000: global: f0=0x00000000
40000000: global: f1=0x40933333
40000000: global: f2=0x4019999a
40000000: global: f3=0xc2aa0000
40000000: global: f4=0x00000000
40000000: global: f5=0x00000000
40000000: global: f6=0x00000000
40000000: global: f7=0x00000000
40000000: global: f8=0x00000000
40000000: global: f9=0x00000000
40000000: global: f10=0x00000000
40000000: global: f11=0x00000000
40000000: global: f12=0x00000000
40000000: global: f13=0x00000000
40000000: global: f14=0x00000000
40000000: global: f15=0x00000000
40000000: global: f16=0x00000000
40000000: global: f17=0x00000000
40000000: global: f18=0x00000000
40000000: global: f19=0x00000000
40000000: global: f20=0x00000000
40000000: global: f21=0x00000000
40000000: global: f22=0x00000000
40000000: global: f23=0x00000000
40000000: global: f24=0x00000000
40000000: global: f25=0x00000000
40000000: global: f26=0x00000000
40000000: global: f27=0x00000000
40000000: global: f28=0x00000000
40000000: global: f29=0x00000000
40000000: global: f30=0x00000000
40000000: global: f31=0x00000000
40000000: system.cpu.memory: Log4GUI: memory: 40000000: 0: 10108: flw f6, 0(x12)
40000000: system.cpu.execute: Log4GUI: execute: 40000000: 0: 1010c: add x12, x2, x7: 0
40000000: system.cpu.decode: Log4GUI: decode: 40000000: 0: 10110: flw f7, 0(x12)
40000000: system.cpu.fetch1: Log4GUI: fetch1: 40000000: 0: 10114: <assembly>
41000000: system.cpu.writeback: Log4GUI: writeback: 41000000: 0: 10108: flw f6, 0(x12)
41000000: system.cpu.writeback: REGISTERS
41000000: global: x0=0x00000000
41000000: global: x1=0x0001115c
41000000: global: x2=0x0001119c
41000000: global: x3=0x000111e1
41000000: global: x4=0xffffffab
41000000: global: x5=0x00000010
41000000: global: x6=0x00000001
41000000: global: x7=0x00000004
41000000: global: x8=0x000111dd
41000000: global: x9=0x7f800000
41000000: global: x10=0x00000000
41000000: global: x11=0x000111dc
41000000: global: x12=0x00011160
41000000: global: x13=0x00000000
41000000: global: x14=0x00000000
41000000: global: x15=0x00000000
41000000: global: x16=0x00000000
41000000: global: x17=0x00000000
41000000: global: x18=0x00000000
41000000: global: x19=0x00000000
41000000: global: x20=0x00000000
41000000: global: x21=0x00000000
41000000: global: x22=0x00000000
41000000: global: x23=0x00000000
41000000: global: x24=0x00000000
41000000: global: x25=0x00000000
41000000: global: x26=0x00000000
41000000: global: x27=0x00000000
41000000: global: x28=0x00000000
41000000: global: x29=0x00000000
41000000: global: x30=0x00000000
41000000: global: x31=0x00000000
41000000: global: f0=0x00000000
41000000: global: f1=0x40933333
41000000: global: f2=0x4019999a
41000000: global: f3=0xc2aa0000
41000000: global: f4=0x00000000
41000000: global: f5=0x00000000
41000000: global: f6=0x3f8ccccd
41000000: global: f7=0x00000000
41000000: global: f8=0x00000000
41000000: global: f9=0x00000000
41000000: global: f10=0x00000000
41000000: global: f11=0x00000000
41000000: global: f12=0x00000000
41000000: global: f13=0x00000000
41000000: global: f14=0x00000000
41000000: global: f15=0x00000000
41000000: global: f16=0x00000000
41000000: global: f17=0x00000000
41000000: global: f18=0x00000000
41000000: global: f19=0x00000000
41000000: global: f20=0x00000000
41000000: global: f21=0x00000000
41000000: global: f22=0x00000000
41000000: global: f23=0x00000000
41000000: global: f24=0x00000000
41000000: global: f25=0x00000000
41000000: global: f26=0x00000000
41000000: global: f27=0x00000000
41000000: global: f28=0x00000000
41000000: global: f29=0x00000000
41000000: global: f30=0x00000000
41000000: global: f31=0x00000000
41000000: system.cpu.memory: Log4GUI: memory: 41000000: 0: 1010c: add x12, x2, x7
41000000: system.cpu.execute: Log4GUI: execute: 41000000: 0: 10110: flw f7, 0(x12): 0
41000000: system.cpu.decode: Log4GUI: decode: 41000000: 0: 10114: addi x6, x6, 1
41000000: system.cpu.fetch1: Log4GUI: fetch1: 41000000: 0: 10118: <assembly>
42000000: system.cpu.writeback: Log4GUI: writeback: 42000000: 0: 1010c: add x12, x2, x7
42000000: system.cpu.writeback: REGISTERS
42000000: global: x0=0x00000000
42000000: global: x1=0x0001115c
42000000: global: x2=0x0001119c
42000000: global: x3=0x000111e1
42000000: global: x4=0xffffffab
42000000: global: x5=0x00000010
42000000: global: x6=0x00000001
42000000: global: x7=0x00000004
42000000: global: x8=0x000111dd
42000000: global: x9=0x7f800000
42000000: global: x10=0x00000000
42000000: global: x11=0x000111dc
42000000: global: x12=0x000111a0
42000000: global: x13=0x00000000
42000000: global: x14=0x00000000
42000000: global: x15=0x00000000
42000000: global: x16=0x00000000
42000000: global: x17=0x00000000
42000000: global: x18=0x00000000
42000000: global: x19=0x00000000
[...]
266000000: system.cpu.fetch1: Log4GUI: fetch1: 266000000: 1: 10138: <assembly>
267000000: system.cpu.execute: Log4GUI: execute: 267000000: 0: 10130: fadd_s f4, f3, f4: 3
267000000: system.cpu.decode: Log4GUI: decode: 267000000: 1: 10134: fmv_x_w x10, f4
267000000: system.cpu.fetch1: Log4GUI: fetch1: 267000000: 1: 10138: <assembly>
268000000: system.cpu.memory: Log4GUI: memory: 268000000: 0: 10130: fadd_s f4, f3, f4
268000000: system.cpu.execute: Log4GUI: execute: 268000000: 0: 10134: fmv_x_w x10, f4: 3
268000000: system.cpu.decode: Log4GUI: decode: 268000000: 0: 10138: fsw f4, 0(x11)
268000000: system.cpu.fetch1: Log4GUI: fetch1: 268000000: 0: 1013c: <assembly>
269000000: system.cpu.writeback: Log4GUI: writeback: 269000000: 0: 10130: fadd_s f4, f3, f4
269000000: system.cpu.writeback: REGISTERS
269000000: global: x0=0x00000000
269000000: global: x1=0x0001115c
269000000: global: x2=0x0001119c
269000000: global: x3=0x000111e1
269000000: global: x4=0xffffffab
269000000: global: x5=0x00000010
269000000: global: x6=0x00000010
269000000: global: x7=0x00000040
269000000: global: x8=0x000111dd
269000000: global: x9=0x7f800000
269000000: global: x10=0x00000000
269000000: global: x11=0x000111dc
269000000: global: x12=0x000111d8
269000000: global: x13=0x00000000
269000000: global: x14=0x00000000
269000000: global: x15=0x00000000
269000000: global: x16=0x00000000
269000000: global: x17=0x00000000
269000000: global: x18=0x00000000
269000000: global: x19=0x00000000
269000000: global: x20=0x00000000
269000000: global: x21=0x00000000
269000000: global: x22=0x00000000
269000000: global: x23=0x00000000
269000000: global: x24=0x00000000
269000000: global: x25=0x00000000
269000000: global: x26=0x00000000
269000000: global: x27=0x00000000
269000000: global: x28=0x00000000
269000000: global: x29=0x00000000
269000000: global: x30=0x00000000
269000000: global: x31=0x00000000
269000000: global: f0=0x00000000
269000000: global: f1=0x40b00000
269000000: global: f2=0x3fcccccd
269000000: global: f3=0xc2aa0000
269000000: global: f4=0xc2986666
269000000: global: f5=0x43bdf47b
269000000: global: f6=0x4101999a
269000000: global: f7=0x3f800000
269000000: global: f8=0x4101999a
269000000: global: f9=0x00000000
269000000: global: f10=0x00000000
269000000: global: f11=0x00000000
269000000: global: f12=0x00000000
269000000: global: f13=0x00000000
269000000: global: f14=0x00000000
269000000: global: f15=0x00000000
269000000: global: f16=0x00000000
269000000: global: f17=0x00000000
269000000: global: f18=0x00000000
269000000: global: f19=0x00000000
269000000: global: f20=0x00000000
269000000: global: f21=0x00000000
269000000: global: f22=0x00000000
269000000: global: f23=0x00000000
269000000: global: f24=0x00000000
269000000: global: f25=0x00000000
269000000: global: f26=0x00000000
269000000: global: f27=0x00000000
269000000: global: f28=0x00000000
269000000: global: f29=0x00000000
269000000: global: f30=0x00000000
269000000: global: f31=0x00000000
269000000: system.cpu.execute: Log4GUI: execute: 269000000: 0: 10138: fsw f4, 0(x11): 0
269000000: system.cpu.execute: Log4GUI: execute: 269000000: 0: 10134: fmv_x_w x10, f4: 3
269000000: system.cpu.decode: Log4GUI: decode: 269000000: 0: 1013c: and x10, x10, x9
269000000: system.cpu.fetch1: Log4GUI: fetch1: 269000000: 0: 10140: <assembly>
270000000: system.cpu.memory: Log4GUI: memory: 270000000: 0: 10138: fsw f4, 0(x11)
270000000: system.cpu.execute: Log4GUI: execute: 270000000: 0: 10134: fmv_x_w x10, f4: 3
270000000: system.cpu.decode: Log4GUI: decode: 270000000: 1: 1013c: and x10, x10, x9
270000000: system.cpu.fetch1: Log4GUI: fetch1: 270000000: 1: 10140: <assembly>
271000000: system.cpu.writeback: Log4GUI: writeback: 271000000: 0: 10138: fsw f4, 0(x11)
271000000: system.cpu.writeback: REGISTERS
271000000: global: x0=0x00000000
271000000: global: x1=0x0001115c
271000000: global: x2=0x0001119c
271000000: global: x3=0x000111e1
271000000: global: x4=0xffffffab
271000000: global: x5=0x00000010
271000000: global: x6=0x00000010
271000000: global: x7=0x00000040
271000000: global: x8=0x000111dd
271000000: global: x9=0x7f800000
271000000: global: x10=0x00000000
271000000: global: x11=0x000111dc
271000000: global: x12=0x000111d8
271000000: global: x13=0x00000000
271000000: global: x14=0x00000000
271000000: global: x15=0x00000000
271000000: global: x16=0x00000000
271000000: global: x17=0x00000000
271000000: global: x18=0x00000000
271000000: global: x19=0x00000000
271000000: global: x20=0x00000000
271000000: global: x21=0x00000000
271000000: global: x22=0x00000000
271000000: global: x23=0x00000000
271000000: global: x24=0x00000000
271000000: global: x25=0x00000000
271000000: global: x26=0x00000000
271000000: global: x27=0x00000000
271000000: global: x28=0x00000000
271000000: global: x29=0x00000000
271000000: global: x30=0x00000000
271000000: global: x31=0x00000000
271000000: global: f0=0x00000000
271000000: global: f1=0x40b00000
271000000: global: f2=0x3fcccccd
271000000: global: f3=0xc2aa0000
271000000: global: f4=0xc2986666
271000000: global: f5=0x43bdf47b
271000000: global: f6=0x4101999a
271000000: global: f7=0x3f800000
271000000: global: f8=0x4101999a
271000000: global: f9=0x00000000
271000000: global: f10=0x00000000
271000000: global: f11=0x00000000
271000000: global: f12=0x00000000
271000000: global: f13=0x00000000
271000000: global: f14=0x00000000
271000000: global: f15=0x00000000
271000000: global: f16=0x00000000
271000000: global: f17=0x00000000
271000000: global: f18=0x00000000
271000000: global: f19=0x00000000
271000000: global: f20=0x00000000
271000000: global: f21=0x00000000
271000000: global: f22=0x00000000
271000000: global: f23=0x00000000
271000000: global: f24=0x00000000
271000000: global: f25=0x00000000
271000000: global: f26=0x00000000
271000000: global: f27=0x00000000
271000000: global: f28=0x00000000
271000000: global: f29=0x00000000
271000000: global: f30=0x00000000
271000000: global: f31=0x00000000
271000000: system.cpu.execute: Log4GUI: execute: 271000000: 0: 10134: fmv_x_w x10, f4: 3
271000000: system.cpu.decode: Log4GUI: decode: 271000000: 1: 1013c: and x10, x10, x9
271000000: system.cpu.fetch1: Log4GUI: fetch1: 271000000: 1: 10140: <assembly>
272000000: system.cpu.memory: Log4GUI: memory: 272000000: 0: 10134: fmv_x_w x10, f4
272000000: system.cpu.execute: Log4GUI: execute: 272000000: 0: 1013c: and x10, x10, x9: 0
272000000: system.cpu.decode: Log4GUI: decode: 272000000: 0: 10140: beq x10, x9, 8
272000000: system.cpu.fetch1: Log4GUI: fetch1: 272000000: 0: 10144: <assembly>
273000000: system.cpu.writeback: Log4GUI: writeback: 273000000: 0: 10134: fmv_x_w x10, f4
273000000: system.cpu.writeback: REGISTERS
273000000: global: x0=0x00000000
273000000: global: x1=0x0001115c
273000000: global: x2=0x0001119c
273000000: global: x3=0x000111e1
273000000: global: x4=0xffffffab
273000000: global: x5=0x00000010
273000000: global: x6=0x00000010
273000000: global: x7=0x00000040
273000000: global: x8=0x000111dd
273000000: global: x9=0x7f800000
273000000: global: x10=0xc2986666
273000000: global: x11=0x000111dc
273000000: global: x12=0x000111d8
273000000: global: x13=0x00000000
273000000: global: x14=0x00000000
273000000: global: x15=0x00000000
273000000: global: x16=0x00000000
273000000: global: x17=0x00000000
273000000: global: x18=0x00000000
273000000: global: x19=0x00000000
273000000: global: x20=0x00000000
273000000: global: x21=0x00000000
273000000: global: x22=0x00000000
273000000: global: x23=0x00000000
273000000: global: x24=0x00000000
273000000: global: x25=0x00000000
273000000: global: x26=0x00000000
273000000: global: x27=0x00000000
273000000: global: x28=0x00000000
273000000: global: x29=0x00000000
273000000: global: x30=0x00000000
273000000: global: x31=0x00000000
273000000: global: f0=0x00000000
273000000: global: f1=0x40b00000
273000000: global: f2=0x3fcccccd
273000000: global: f3=0xc2aa0000
273000000: global: f4=0xc2986666
273000000: global: f5=0x43bdf47b
273000000: global: f6=0x4101999a
273000000: global: f7=0x3f800000
273000000: global: f8=0x4101999a
273000000: global: f9=0x00000000
273000000: global: f10=0x00000000
273000000: global: f11=0x00000000
273000000: global: f12=0x00000000
273000000: global: f13=0x00000000
273000000: global: f14=0x00000000
273000000: global: f15=0x00000000
273000000: global: f16=0x00000000
273000000: global: f17=0x00000000
273000000: global: f18=0x00000000
273000000: global: f19=0x00000000
273000000: global: f20=0x00000000
273000000: global: f21=0x00000000
273000000: global: f22=0x00000000
273000000: global: f23=0x00000000
273000000: global: f24=0x00000000
273000000: global: f25=0x00000000
273000000: global: f26=0x00000000
273000000: global: f27=0x00000000
273000000: global: f28=0x00000000
273000000: global: f29=0x00000000
273000000: global: f30=0x00000000
273000000: global: f31=0x00000000
273000000: system.cpu.memory: Log4GUI: memory: 273000000: 0: 1013c: and x10, x10, x9
273000000: system.cpu.decode: Log4GUI: decode: 273000000: 1: 10140: beq x10, x9, 8
273000000: system.cpu.fetch1: Log4GUI: fetch1: 273000000: 1: 10144: <assembly>
274000000: system.cpu.writeback: Log4GUI: writeback: 274000000: 0: 1013c: and x10, x10, x9
274000000: system.cpu.writeback: REGISTERS
274000000: global: x0=0x00000000
274000000: global: x1=0x0001115c
274000000: global: x2=0x0001119c
274000000: global: x3=0x000111e1
274000000: global: x4=0xffffffab
274000000: global: x5=0x00000010
274000000: global: x6=0x00000010
274000000: global: x7=0x00000040
274000000: global: x8=0x000111dd
274000000: global: x9=0x7f800000
274000000: global: x10=0x42800000
274000000: global: x11=0x000111dc
274000000: global: x12=0x000111d8
274000000: global: x13=0x00000000
274000000: global: x14=0x00000000
274000000: global: x15=0x00000000
274000000: global: x16=0x00000000
274000000: global: x17=0x00000000
274000000: global: x18=0x00000000
274000000: global: x19=0x00000000
274000000: global: x20=0x00000000
274000000: global: x21=0x00000000
274000000: global: x22=0x00000000
274000000: global: x23=0x00000000
274000000: global: x24=0x00000000
274000000: global: x25=0x00000000
274000000: global: x26=0x00000000
274000000: global: x27=0x00000000
274000000: global: x28=0x00000000
274000000: global: x29=0x00000000
274000000: global: x30=0x00000000
274000000: global: x31=0x00000000
274000000: global: f0=0x00000000
274000000: global: f1=0x40b00000
274000000: global: f2=0x3fcccccd
274000000: global: f3=0xc2aa0000
274000000: global: f4=0xc2986666
274000000: global: f5=0x43bdf47b
274000000: global: f6=0x4101999a
274000000: global: f7=0x3f800000
274000000: global: f8=0x4101999a
274000000: global: f9=0x00000000
274000000: global: f10=0x00000000
274000000: global: f11=0x00000000
274000000: global: f12=0x00000000
274000000: global: f13=0x00000000
274000000: global: f14=0x00000000
274000000: global: f15=0x00000000
274000000: global: f16=0x00000000
274000000: global: f17=0x00000000
274000000: global: f18=0x00000000
274000000: global: f19=0x00000000
274000000: global: f20=0x00000000
274000000: global: f21=0x00000000
274000000: global: f22=0x00000000
274000000: global: f23=0x00000000
274000000: global: f24=0x00000000
274000000: global: f25=0x00000000
274000000: global: f26=0x00000000
274000000: global: f27=0x00000000
274000000: global: f28=0x00000000
274000000: global: f29=0x00000000
274000000: global: f30=0x00000000
274000000: global: f31=0x00000000
274000000: system.cpu.execute: Log4GUI: execute: 274000000: 0: 10140: beq x10, x9, 8: 0
274000000: system.cpu.decode: Log4GUI: decode: 274000000: 0: 10144: jal x0, 12
274000000: system.cpu.fetch1: Log4GUI: fetch1: 274000000: 0: 10148: <assembly>
275000000: system.cpu.memory: Log4GUI: memory: 275000000: 0: 10140: beq x10, x9, 8
275000000: system.cpu.execute: Log4GUI: execute: 275000000: 0: 10144: jal x0, 12: 0
275000000: system.cpu.fetch1: Log4GUI: fetch1: 275000000: 0: 10150: <assembly>
276000000: system.cpu.writeback: Log4GUI: writeback: 276000000: 0: 10140: beq x10, x9, 8
276000000: system.cpu.writeback: REGISTERS
276000000: global: x0=0x00000000
276000000: global: x1=0x0001115c
276000000: global: x2=0x0001119c
276000000: global: x3=0x000111e1
276000000: global: x4=0xffffffab
276000000: global: x5=0x00000010
276000000: global: x6=0x00000010
276000000: global: x7=0x00000040
276000000: global: x8=0x000111dd
276000000: global: x9=0x7f800000
276000000: global: x10=0x42800000
276000000: global: x11=0x000111dc
276000000: global: x12=0x000111d8
276000000: global: x13=0x00000000
276000000: global: x14=0x00000000
276000000: global: x15=0x00000000
276000000: global: x16=0x00000000
276000000: global: x17=0x00000000
276000000: global: x18=0x00000000
276000000: global: x19=0x00000000
276000000: global: x20=0x00000000
276000000: global: x21=0x00000000
276000000: global: x22=0x00000000
276000000: global: x23=0x00000000
276000000: global: x24=0x00000000
276000000: global: x25=0x00000000
276000000: global: x26=0x00000000
276000000: global: x27=0x00000000
276000000: global: x28=0x00000000
276000000: global: x29=0x00000000
276000000: global: x30=0x00000000
276000000: global: x31=0x00000000
276000000: global: f0=0x00000000
276000000: global: f1=0x40b00000
276000000: global: f2=0x3fcccccd
276000000: global: f3=0xc2aa0000
276000000: global: f4=0xc2986666
276000000: global: f5=0x43bdf47b
276000000: global: f6=0x4101999a
276000000: global: f7=0x3f800000
276000000: global: f8=0x4101999a
276000000: global: f9=0x00000000
276000000: global: f10=0x00000000
276000000: global: f11=0x00000000
276000000: global: f12=0x00000000
276000000: global: f13=0x00000000
276000000: global: f14=0x00000000
276000000: global: f15=0x00000000
276000000: global: f16=0x00000000
276000000: global: f17=0x00000000
276000000: global: f18=0x00000000
276000000: global: f19=0x00000000
276000000: global: f20=0x00000000
276000000: global: f21=0x00000000
276000000: global: f22=0x00000000
276000000: global: f23=0x00000000
276000000: global: f24=0x00000000
276000000: global: f25=0x00000000
276000000: global: f26=0x00000000
276000000: global: f27=0x00000000
276000000: global: f28=0x00000000
276000000: global: f29=0x00000000
276000000: global: f30=0x00000000
276000000: global: f31=0x00000000
276000000: system.cpu.memory: Log4GUI: memory: 276000000: 0: 10144: jal x0, 12
276000000: system.cpu.decode: Log4GUI: decode: 276000000: 0: 10150: addi x10, x0, 0
276000000: system.cpu.fetch1: Log4GUI: fetch1: 276000000: 0: 10154: <assembly>
277000000: system.cpu.writeback: Log4GUI: writeback: 277000000: 0: 10144: jal x0, 12
277000000: system.cpu.writeback: REGISTERS
277000000: global: x0=0x00000000
277000000: global: x1=0x0001115c
277000000: global: x2=0x0001119c
277000000: global: x3=0x000111e1
277000000: global: x4=0xffffffab
277000000: global: x5=0x00000010
277000000: global: x6=0x00000010
277000000: global: x7=0x00000040
277000000: global: x8=0x000111dd
277000000: global: x9=0x7f800000
277000000: global: x10=0x42800000
277000000: global: x11=0x000111dc
277000000: global: x12=0x000111d8
277000000: global: x13=0x00000000
277000000: global: x14=0x00000000
277000000: global: x15=0x00000000
277000000: global: x16=0x00000000
277000000: global: x17=0x00000000
277000000: global: x18=0x00000000
277000000: global: x19=0x00000000
277000000: global: x20=0x00000000
277000000: global: x21=0x00000000
277000000: global: x22=0x00000000
277000000: global: x23=0x00000000
277000000: global: x24=0x00000000
277000000: global: x25=0x00000000
277000000: global: x26=0x00000000
277000000: global: x27=0x00000000
277000000: global: x28=0x00000000
277000000: global: x29=0x00000000
277000000: global: x30=0x00000000
277000000: global: x31=0x00000000
277000000: global: f0=0x00000000
277000000: global: f1=0x40b00000
277000000: global: f2=0x3fcccccd
277000000: global: f3=0xc2aa0000
277000000: global: f4=0xc2986666
277000000: global: f5=0x43bdf47b
277000000: global: f6=0x4101999a
277000000: global: f7=0x3f800000
277000000: global: f8=0x4101999a
277000000: global: f9=0x00000000
277000000: global: f10=0x00000000
277000000: global: f11=0x00000000
277000000: global: f12=0x00000000
277000000: global: f13=0x00000000
277000000: global: f14=0x00000000
277000000: global: f15=0x00000000
277000000: global: f16=0x00000000
277000000: global: f17=0x00000000
277000000: global: f18=0x00000000
277000000: global: f19=0x00000000
277000000: global: f20=0x00000000
277000000: global: f21=0x00000000
277000000: global: f22=0x00000000
277000000: global: f23=0x00000000
277000000: global: f24=0x00000000
277000000: global: f25=0x00000000
277000000: global: f26=0x00000000
277000000: global: f27=0x00000000
277000000: global: f28=0x00000000
277000000: global: f29=0x00000000
277000000: global: f30=0x00000000
277000000: global: f31=0x00000000
277000000: system.cpu.execute: Log4GUI: execute: 277000000: 0: 10150: addi x10, x0, 0: 0
277000000: system.cpu.decode: Log4GUI: decode: 277000000: 0: 10154: addi x17, x0, 93
277000000: system.cpu.fetch1: Log4GUI: fetch1: 277000000: 0: 10158: <assembly>
278000000: system.cpu.memory: Log4GUI: memory: 278000000: 0: 10150: addi x10, x0, 0
278000000: system.cpu.execute: Log4GUI: execute: 278000000: 0: 10154: addi x17, x0, 93: 0
278000000: system.cpu.decode: Log4GUI: decode: 278000000: 0: 10158: ecall
278000000: system.cpu.fetch1: Log4GUI: fetch1: 278000000: 0: 1015c: <assembly>
279000000: system.cpu.writeback: Log4GUI: writeback: 279000000: 0: 10150: addi x10, x0, 0
279000000: system.cpu.writeback: REGISTERS
279000000: global: x0=0x00000000
279000000: global: x1=0x0001115c
279000000: global: x2=0x0001119c
279000000: global: x3=0x000111e1
279000000: global: x4=0xffffffab
279000000: global: x5=0x00000010
279000000: global: x6=0x00000010
279000000: global: x7=0x00000040
279000000: global: x8=0x000111dd
279000000: global: x9=0x7f800000
279000000: global: x10=0x00000000
279000000: global: x11=0x000111dc
279000000: global: x12=0x000111d8
279000000: global: x13=0x00000000
279000000: global: x14=0x00000000
279000000: global: x15=0x00000000
279000000: global: x16=0x00000000
279000000: global: x17=0x00000000
279000000: global: x18=0x00000000
279000000: global: x19=0x00000000
279000000: global: x20=0x00000000
279000000: global: x21=0x00000000
279000000: global: x22=0x00000000
279000000: global: x23=0x00000000
279000000: global: x24=0x00000000
279000000: global: x25=0x00000000
279000000: global: x26=0x00000000
279000000: global: x27=0x00000000
279000000: global: x28=0x00000000
279000000: global: x29=0x00000000
279000000: global: x30=0x00000000
279000000: global: x31=0x00000000
279000000: global: f0=0x00000000
279000000: global: f1=0x40b00000
279000000: global: f2=0x3fcccccd
279000000: global: f3=0xc2aa0000
279000000: global: f4=0xc2986666
279000000: global: f5=0x43bdf47b
279000000: global: f6=0x4101999a
279000000: global: f7=0x3f800000
279000000: global: f8=0x4101999a
279000000: global: f9=0x00000000
279000000: global: f10=0x00000000
279000000: global: f11=0x00000000
279000000: global: f12=0x00000000
279000000: global: f13=0x00000000
279000000: global: f14=0x00000000
279000000: global: f15=0x00000000
279000000: global: f16=0x00000000
279000000: global: f17=0x00000000
279000000: global: f18=0x00000000
279000000: global: f19=0x00000000
279000000: global: f20=0x00000000
279000000: global: f21=0x00000000
279000000: global: f22=0x00000000
279000000: global: f23=0x00000000
279000000: global: f24=0x00000000
279000000: global: f25=0x00000000
279000000: global: f26=0x00000000
279000000: global: f27=0x00000000
279000000: global: f28=0x00000000
279000000: global: f29=0x00000000
279000000: global: f30=0x00000000
279000000: global: f31=0x00000000
279000000: system.cpu.memory: Log4GUI: memory: 279000000: 0: 10154: addi x17, x0, 93
279000000: system.cpu.execute: Log4GUI: execute: 279000000: 0: 10158: ecall: -1
279000000: system.cpu.decode: Log4GUI: decode: 279000000: 0: 1015c: c_addi4spn x8, x2, 0
279000000: system.cpu.fetch1: Log4GUI: fetch1: 279000000: 0: 1015e: <assembly>
Exiting @ tick 279000000 because exiting with last active thread context
