Global frequency set at 1000000000000 ticks per second
gem5 Simulator System.  https://www.gem5.org
gem5 is copyrighted software; use the --copyright option for details.

gem5 version 22.1.0.0
gem5 compiled Aug 27 2025 16:10:28
gem5 started Oct 31 2025 20:58:10
gem5 executing on vboxuser-VirtualBox, pid 40713
command line: /home/vboxuser/gem5/build/RISCV/gem5.opt --debug-flags=MinorGUI gem5_config.py --cpu-type MinorCPU --caches --l1d_size 8388608 --l1i_size 8388608 --cacheline_size 512 --cpu-clock 1MHz --sys-clock 10GHz -c program_1_b_16

**** REAL SIMULATION ****
1000000: system.cpu.fetch1: Log4GUI: fetch1: 1000000: 0: 10094: <assembly>
2000000: system.cpu.fetch1: Log4GUI: fetch1: 2000000: 1: 10094: <assembly>
3000000: system.cpu.fetch1: Log4GUI: fetch1: 3000000: 1: 10094: <assembly>
4000000: system.cpu.fetch1: Log4GUI: fetch1: 4000000: 1: 10094: <assembly>
5000000: system.cpu.decode: Log4GUI: decode: 5000000: 0: 10094: auipc x1, 1
5000000: system.cpu.fetch1: Log4GUI: fetch1: 5000000: 0: 10098: <assembly>
6000000: system.cpu.execute: Log4GUI: execute: 6000000: 0: 10094: auipc x1, 1: 0
6000000: system.cpu.decode: Log4GUI: decode: 6000000: 0: 10098: addi x1, x1, 644
6000000: system.cpu.fetch1: Log4GUI: fetch1: 6000000: 0: 1009c: <assembly>
7000000: system.cpu.memory: Log4GUI: memory: 7000000: 0: 10094: auipc x1, 1
7000000: system.cpu.execute: Log4GUI: execute: 7000000: 0: 10098: addi x1, x1, 644: 0
7000000: system.cpu.decode: Log4GUI: decode: 7000000: 0: 1009c: flw f1, 0(x1)
7000000: system.cpu.fetch1: Log4GUI: fetch1: 7000000: 0: 100a0: <assembly>
8000000: system.cpu.writeback: Log4GUI: writeback: 8000000: 0: 10094: auipc x1, 1
8000000: system.cpu.writeback: REGISTERS
8000000: global: x0=0x00000000
8000000: global: x1=0x00011094
8000000: global: x2=0x7fffff90
8000000: global: x3=0x00000000
8000000: global: x4=0x00000000
8000000: global: x5=0x00000000
8000000: global: x6=0x00000000
8000000: global: x7=0x00000000
8000000: global: x8=0x00000000
8000000: global: x9=0x00000000
8000000: global: x10=0x00000000
8000000: global: x11=0x00000000
8000000: global: x12=0x00000000
8000000: global: x13=0x00000000
8000000: global: x14=0x00000000
8000000: global: x15=0x00000000
8000000: global: x16=0x00000000
8000000: global: x17=0x00000000
8000000: global: x18=0x00000000
8000000: global: x19=0x00000000
8000000: global: x20=0x00000000
8000000: global: x21=0x00000000
8000000: global: x22=0x00000000
8000000: global: x23=0x00000000
8000000: global: x24=0x00000000
8000000: global: x25=0x00000000
8000000: global: x26=0x00000000
8000000: global: x27=0x00000000
8000000: global: x28=0x00000000
8000000: global: x29=0x00000000
8000000: global: x30=0x00000000
8000000: global: x31=0x00000000
8000000: global: f0=0x00000000
8000000: global: f1=0x00000000
8000000: global: f2=0x00000000
8000000: global: f3=0x00000000
8000000: global: f4=0x00000000
8000000: global: f5=0x00000000
8000000: global: f6=0x00000000
8000000: global: f7=0x00000000
8000000: global: f8=0x00000000
8000000: global: f9=0x00000000
8000000: global: f10=0x00000000
8000000: global: f11=0x00000000
8000000: global: f12=0x00000000
8000000: global: f13=0x00000000
8000000: global: f14=0x00000000
8000000: global: f15=0x00000000
8000000: global: f16=0x00000000
8000000: global: f17=0x00000000
8000000: global: f18=0x00000000
8000000: global: f19=0x00000000
8000000: global: f20=0x00000000
8000000: global: f21=0x00000000
8000000: global: f22=0x00000000
8000000: global: f23=0x00000000
8000000: global: f24=0x00000000
8000000: global: f25=0x00000000
8000000: global: f26=0x00000000
8000000: global: f27=0x00000000
8000000: global: f28=0x00000000
8000000: global: f29=0x00000000
8000000: global: f30=0x00000000
8000000: global: f31=0x00000000
8000000: system.cpu.memory: Log4GUI: memory: 8000000: 0: 10098: addi x1, x1, 644
8000000: system.cpu.execute: Log4GUI: execute: 8000000: 0: 1009c: flw f1, 0(x1): 0
8000000: system.cpu.decode: Log4GUI: decode: 8000000: 0: 100a0: auipc x2, 1
8000000: system.cpu.fetch1: Log4GUI: fetch1: 8000000: 0: 100a4: <assembly>
9000000: system.cpu.writeback: Log4GUI: writeback: 9000000: 0: 10098: addi x1, x1, 644
9000000: system.cpu.writeback: REGISTERS
9000000: global: x0=0x00000000
9000000: global: x1=0x00011318
9000000: global: x2=0x7fffff90
9000000: global: x3=0x00000000
9000000: global: x4=0x00000000
9000000: global: x5=0x00000000
9000000: global: x6=0x00000000
9000000: global: x7=0x00000000
9000000: global: x8=0x00000000
9000000: global: x9=0x00000000
9000000: global: x10=0x00000000
9000000: global: x11=0x00000000
9000000: global: x12=0x00000000
9000000: global: x13=0x00000000
9000000: global: x14=0x00000000
9000000: global: x15=0x00000000
9000000: global: x16=0x00000000
9000000: global: x17=0x00000000
9000000: global: x18=0x00000000
9000000: global: x19=0x00000000
9000000: global: x20=0x00000000
9000000: global: x21=0x00000000
9000000: global: x22=0x00000000
9000000: global: x23=0x00000000
9000000: global: x24=0x00000000
9000000: global: x25=0x00000000
9000000: global: x26=0x00000000
9000000: global: x27=0x00000000
9000000: global: x28=0x00000000
9000000: global: x29=0x00000000
9000000: global: x30=0x00000000
9000000: global: x31=0x00000000
9000000: global: f0=0x00000000
9000000: global: f1=0x00000000
9000000: global: f2=0x00000000
9000000: global: f3=0x00000000
9000000: global: f4=0x00000000
9000000: global: f5=0x00000000
9000000: global: f6=0x00000000
9000000: global: f7=0x00000000
9000000: global: f8=0x00000000
9000000: global: f9=0x00000000
9000000: global: f10=0x00000000
9000000: global: f11=0x00000000
9000000: global: f12=0x00000000
9000000: global: f13=0x00000000
9000000: global: f14=0x00000000
9000000: global: f15=0x00000000
9000000: global: f16=0x00000000
9000000: global: f17=0x00000000
9000000: global: f18=0x00000000
9000000: global: f19=0x00000000
9000000: global: f20=0x00000000
9000000: global: f21=0x00000000
9000000: global: f22=0x00000000
9000000: global: f23=0x00000000
9000000: global: f24=0x00000000
9000000: global: f25=0x00000000
9000000: global: f26=0x00000000
9000000: global: f27=0x00000000
9000000: global: f28=0x00000000
9000000: global: f29=0x00000000
9000000: global: f30=0x00000000
9000000: global: f31=0x00000000
9000000: system.cpu.memory: Log4GUI: memory: 9000000: 0: 1009c: flw f1, 0(x1)
9000000: system.cpu.execute: Log4GUI: execute: 9000000: 0: 100a0: auipc x2, 1: 0
9000000: system.cpu.decode: Log4GUI: decode: 9000000: 0: 100a4: addi x2, x2, 696
9000000: system.cpu.fetch1: Log4GUI: fetch1: 9000000: 0: 100a8: <assembly>
10000000: system.cpu.memory: Log4GUI: memory: 10000000: 1: 1009c: flw f1, 0(x1)
10000000: system.cpu.execute: Log4GUI: execute: 10000000: 1: 100a0: auipc x2, 1: 0
10000000: system.cpu.decode: Log4GUI: decode: 10000000: 1: 100a4: addi x2, x2, 696
10000000: system.cpu.fetch1: Log4GUI: fetch1: 10000000: 1: 100a8: <assembly>
11000000: system.cpu.decode: Log4GUI: decode: 11000000: 1: 100a4: addi x2, x2, 696
11000000: system.cpu.fetch1: Log4GUI: fetch1: 11000000: 1: 100a8: <assembly>
12000000: system.cpu.writeback: Log4GUI: writeback: 12000000: 0: 1009c: flw f1, 0(x1)
12000000: system.cpu.writeback: REGISTERS
12000000: global: x0=0x00000000
12000000: global: x1=0x00011318
12000000: global: x2=0x7fffff90
12000000: global: x3=0x00000000
12000000: global: x4=0x00000000
12000000: global: x5=0x00000000
12000000: global: x6=0x00000000
12000000: global: x7=0x00000000
12000000: global: x8=0x00000000
12000000: global: x9=0x00000000
12000000: global: x10=0x00000000
12000000: global: x11=0x00000000
12000000: global: x12=0x00000000
12000000: global: x13=0x00000000
12000000: global: x14=0x00000000
12000000: global: x15=0x00000000
12000000: global: x16=0x00000000
12000000: global: x17=0x00000000
12000000: global: x18=0x00000000
12000000: global: x19=0x00000000
12000000: global: x20=0x00000000
12000000: global: x21=0x00000000
12000000: global: x22=0x00000000
12000000: global: x23=0x00000000
12000000: global: x24=0x00000000
12000000: global: x25=0x00000000
12000000: global: x26=0x00000000
12000000: global: x27=0x00000000
12000000: global: x28=0x00000000
12000000: global: x29=0x00000000
12000000: global: x30=0x00000000
12000000: global: x31=0x00000000
12000000: global: f0=0x00000000
12000000: global: f1=0x40933333
12000000: global: f2=0x00000000
12000000: global: f3=0x00000000
12000000: global: f4=0x00000000
12000000: global: f5=0x00000000
12000000: global: f6=0x00000000
12000000: global: f7=0x00000000
12000000: global: f8=0x00000000
12000000: global: f9=0x00000000
12000000: global: f10=0x00000000
12000000: global: f11=0x00000000
12000000: global: f12=0x00000000
12000000: global: f13=0x00000000
12000000: global: f14=0x00000000
12000000: global: f15=0x00000000
12000000: global: f16=0x00000000
12000000: global: f17=0x00000000
12000000: global: f18=0x00000000
12000000: global: f19=0x00000000
12000000: global: f20=0x00000000
12000000: global: f21=0x00000000
12000000: global: f22=0x00000000
12000000: global: f23=0x00000000
12000000: global: f24=0x00000000
12000000: global: f25=0x00000000
12000000: global: f26=0x00000000
12000000: global: f27=0x00000000
12000000: global: f28=0x00000000
12000000: global: f29=0x00000000
12000000: global: f30=0x00000000
12000000: global: f31=0x00000000
12000000: system.cpu.memory: Log4GUI: memory: 12000000: 0: 100a0: auipc x2, 1
12000000: system.cpu.execute: Log4GUI: execute: 12000000: 0: 100a4: addi x2, x2, 696: 0
12000000: system.cpu.decode: Log4GUI: decode: 12000000: 0: 100a8: flw f1, 0(x2)
12000000: system.cpu.fetch1: Log4GUI: fetch1: 12000000: 0: 100ac: <assembly>
13000000: system.cpu.writeback: Log4GUI: writeback: 13000000: 0: 100a0: auipc x2, 1
13000000: system.cpu.writeback: REGISTERS
13000000: global: x0=0x00000000
13000000: global: x1=0x00011318
13000000: global: x2=0x000110a0
13000000: global: x3=0x00000000
13000000: global: x4=0x00000000
13000000: global: x5=0x00000000
13000000: global: x6=0x00000000
13000000: global: x7=0x00000000
13000000: global: x8=0x00000000
13000000: global: x9=0x00000000
13000000: global: x10=0x00000000
13000000: global: x11=0x00000000
13000000: global: x12=0x00000000
13000000: global: x13=0x00000000
13000000: global: x14=0x00000000
13000000: global: x15=0x00000000
13000000: global: x16=0x00000000
13000000: global: x17=0x00000000
13000000: global: x18=0x00000000
13000000: global: x19=0x00000000
13000000: global: x20=0x00000000
13000000: global: x21=0x00000000
13000000: global: x22=0x00000000
13000000: global: x23=0x00000000
13000000: global: x24=0x00000000
13000000: global: x25=0x00000000
13000000: global: x26=0x00000000
13000000: global: x27=0x00000000
13000000: global: x28=0x00000000
13000000: global: x29=0x00000000
13000000: global: x30=0x00000000
13000000: global: x31=0x00000000
13000000: global: f0=0x00000000
13000000: global: f1=0x40933333
13000000: global: f2=0x00000000
13000000: global: f3=0x00000000
13000000: global: f4=0x00000000
13000000: global: f5=0x00000000
13000000: global: f6=0x00000000
13000000: global: f7=0x00000000
13000000: global: f8=0x00000000
13000000: global: f9=0x00000000
13000000: global: f10=0x00000000
13000000: global: f11=0x00000000
13000000: global: f12=0x00000000
13000000: global: f13=0x00000000
13000000: global: f14=0x00000000
13000000: global: f15=0x00000000
13000000: global: f16=0x00000000
13000000: global: f17=0x00000000
13000000: global: f18=0x00000000
13000000: global: f19=0x00000000
13000000: global: f20=0x00000000
13000000: global: f21=0x00000000
13000000: global: f22=0x00000000
13000000: global: f23=0x00000000
13000000: global: f24=0x00000000
13000000: global: f25=0x00000000
13000000: global: f26=0x00000000
13000000: global: f27=0x00000000
13000000: global: f28=0x00000000
13000000: global: f29=0x00000000
13000000: global: f30=0x00000000
13000000: global: f31=0x00000000
13000000: system.cpu.memory: Log4GUI: memory: 13000000: 0: 100a4: addi x2, x2, 696
13000000: system.cpu.execute: Log4GUI: execute: 13000000: 0: 100a8: flw f1, 0(x2): 0
13000000: system.cpu.decode: Log4GUI: decode: 13000000: 0: 100ac: auipc x3, 1
13000000: system.cpu.fetch1: Log4GUI: fetch1: 13000000: 0: 100b0: <assembly>
14000000: system.cpu.writeback: Log4GUI: writeback: 14000000: 0: 100a4: addi x2, x2, 696
14000000: system.cpu.writeback: REGISTERS
14000000: global: x0=0x00000000
14000000: global: x1=0x00011318
14000000: global: x2=0x00011358
14000000: global: x3=0x00000000
14000000: global: x4=0x00000000
14000000: global: x5=0x00000000
14000000: global: x6=0x00000000
14000000: global: x7=0x00000000
14000000: global: x8=0x00000000
14000000: global: x9=0x00000000
14000000: global: x10=0x00000000
14000000: global: x11=0x00000000
14000000: global: x12=0x00000000
14000000: global: x13=0x00000000
14000000: global: x14=0x00000000
14000000: global: x15=0x00000000
14000000: global: x16=0x00000000
14000000: global: x17=0x00000000
14000000: global: x18=0x00000000
14000000: global: x19=0x00000000
14000000: global: x20=0x00000000
14000000: global: x21=0x00000000
14000000: global: x22=0x00000000
14000000: global: x23=0x00000000
14000000: global: x24=0x00000000
14000000: global: x25=0x00000000
14000000: global: x26=0x00000000
14000000: global: x27=0x00000000
14000000: global: x28=0x00000000
14000000: global: x29=0x00000000
14000000: global: x30=0x00000000
14000000: global: x31=0x00000000
14000000: global: f0=0x00000000
14000000: global: f1=0x40933333
14000000: global: f2=0x00000000
14000000: global: f3=0x00000000
14000000: global: f4=0x00000000
14000000: global: f5=0x00000000
14000000: global: f6=0x00000000
14000000: global: f7=0x00000000
14000000: global: f8=0x00000000
14000000: global: f9=0x00000000
14000000: global: f10=0x00000000
14000000: global: f11=0x00000000
14000000: global: f12=0x00000000
14000000: global: f13=0x00000000
14000000: global: f14=0x00000000
14000000: global: f15=0x00000000
14000000: global: f16=0x00000000
14000000: global: f17=0x00000000
14000000: global: f18=0x00000000
14000000: global: f19=0x00000000
14000000: global: f20=0x00000000
14000000: global: f21=0x00000000
14000000: global: f22=0x00000000
14000000: global: f23=0x00000000
14000000: global: f24=0x00000000
14000000: global: f25=0x00000000
14000000: global: f26=0x00000000
14000000: global: f27=0x00000000
14000000: global: f28=0x00000000
14000000: global: f29=0x00000000
14000000: global: f30=0x00000000
14000000: global: f31=0x00000000
14000000: system.cpu.memory: Log4GUI: memory: 14000000: 0: 100a8: flw f1, 0(x2)
14000000: system.cpu.execute: Log4GUI: execute: 14000000: 0: 100ac: auipc x3, 1: 0
14000000: system.cpu.decode: Log4GUI: decode: 14000000: 0: 100b0: addi x3, x3, 748
14000000: system.cpu.fetch1: Log4GUI: fetch1: 14000000: 0: 100b4: <assembly>
15000000: system.cpu.writeback: Log4GUI: writeback: 15000000: 0: 100a8: flw f1, 0(x2)
15000000: system.cpu.writeback: REGISTERS
15000000: global: x0=0x00000000
15000000: global: x1=0x00011318
15000000: global: x2=0x00011358
15000000: global: x3=0x00000000
15000000: global: x4=0x00000000
15000000: global: x5=0x00000000
15000000: global: x6=0x00000000
15000000: global: x7=0x00000000
15000000: global: x8=0x00000000
15000000: global: x9=0x00000000
15000000: global: x10=0x00000000
15000000: global: x11=0x00000000
15000000: global: x12=0x00000000
15000000: global: x13=0x00000000
15000000: global: x14=0x00000000
15000000: global: x15=0x00000000
15000000: global: x16=0x00000000
15000000: global: x17=0x00000000
15000000: global: x18=0x00000000
15000000: global: x19=0x00000000
15000000: global: x20=0x00000000
15000000: global: x21=0x00000000
15000000: global: x22=0x00000000
15000000: global: x23=0x00000000
15000000: global: x24=0x00000000
15000000: global: x25=0x00000000
15000000: global: x26=0x00000000
15000000: global: x27=0x00000000
15000000: global: x28=0x00000000
15000000: global: x29=0x00000000
15000000: global: x30=0x00000000
15000000: global: x31=0x00000000
15000000: global: f0=0x00000000
15000000: global: f1=0x4019999a
15000000: global: f2=0x00000000
15000000: global: f3=0x00000000
15000000: global: f4=0x00000000
15000000: global: f5=0x00000000
15000000: global: f6=0x00000000
15000000: global: f7=0x00000000
15000000: global: f8=0x00000000
15000000: global: f9=0x00000000
15000000: global: f10=0x00000000
15000000: global: f11=0x00000000
15000000: global: f12=0x00000000
15000000: global: f13=0x00000000
15000000: global: f14=0x00000000
15000000: global: f15=0x00000000
15000000: global: f16=0x00000000
15000000: global: f17=0x00000000
15000000: global: f18=0x00000000
15000000: global: f19=0x00000000
15000000: global: f20=0x00000000
15000000: global: f21=0x00000000
15000000: global: f22=0x00000000
15000000: global: f23=0x00000000
15000000: global: f24=0x00000000
15000000: global: f25=0x00000000
15000000: global: f26=0x00000000
15000000: global: f27=0x00000000
15000000: global: f28=0x00000000
15000000: global: f29=0x00000000
15000000: global: f30=0x00000000
15000000: global: f31=0x00000000
15000000: system.cpu.memory: Log4GUI: memory: 15000000: 0: 100ac: auipc x3, 1
15000000: system.cpu.execute: Log4GUI: execute: 15000000: 0: 100b0: addi x3, x3, 748: 0
15000000: system.cpu.decode: Log4GUI: decode: 15000000: 0: 100b4: lb x4, 0(x3)
15000000: system.cpu.fetch1: Log4GUI: fetch1: 15000000: 0: 100b8: <assembly>
16000000: system.cpu.writeback: Log4GUI: writeback: 16000000: 0: 100ac: auipc x3, 1
16000000: system.cpu.writeback: REGISTERS
16000000: global: x0=0x00000000
16000000: global: x1=0x00011318
16000000: global: x2=0x00011358
16000000: global: x3=0x000110ac
16000000: global: x4=0x00000000
16000000: global: x5=0x00000000
16000000: global: x6=0x00000000
16000000: global: x7=0x00000000
16000000: global: x8=0x00000000
16000000: global: x9=0x00000000
16000000: global: x10=0x00000000
16000000: global: x11=0x00000000
16000000: global: x12=0x00000000
16000000: global: x13=0x00000000
16000000: global: x14=0x00000000
16000000: global: x15=0x00000000
16000000: global: x16=0x00000000
16000000: global: x17=0x00000000
16000000: global: x18=0x00000000
16000000: global: x19=0x00000000
16000000: global: x20=0x00000000
16000000: global: x21=0x00000000
16000000: global: x22=0x00000000
16000000: global: x23=0x00000000
16000000: global: x24=0x00000000
16000000: global: x25=0x00000000
16000000: global: x26=0x00000000
16000000: global: x27=0x00000000
16000000: global: x28=0x00000000
16000000: global: x29=0x00000000
16000000: global: x30=0x00000000
16000000: global: x31=0x00000000
16000000: global: f0=0x00000000
16000000: global: f1=0x4019999a
16000000: global: f2=0x00000000
16000000: global: f3=0x00000000
16000000: global: f4=0x00000000
16000000: global: f5=0x00000000
16000000: global: f6=0x00000000
16000000: global: f7=0x00000000
16000000: global: f8=0x00000000
16000000: global: f9=0x00000000
16000000: global: f10=0x00000000
16000000: global: f11=0x00000000
16000000: global: f12=0x00000000
16000000: global: f13=0x00000000
16000000: global: f14=0x00000000
16000000: global: f15=0x00000000
16000000: global: f16=0x00000000
16000000: global: f17=0x00000000
16000000: global: f18=0x00000000
16000000: global: f19=0x00000000
16000000: global: f20=0x00000000
16000000: global: f21=0x00000000
16000000: global: f22=0x00000000
16000000: global: f23=0x00000000
16000000: global: f24=0x00000000
16000000: global: f25=0x00000000
16000000: global: f26=0x00000000
16000000: global: f27=0x00000000
16000000: global: f28=0x00000000
16000000: global: f29=0x00000000
16000000: global: f30=0x00000000
16000000: global: f31=0x00000000
16000000: system.cpu.memory: Log4GUI: memory: 16000000: 0: 100b0: addi x3, x3, 748
16000000: system.cpu.execute: Log4GUI: execute: 16000000: 0: 100b4: lb x4, 0(x3): 0
16000000: system.cpu.decode: Log4GUI: decode: 16000000: 0: 100b8: auipc x3, 1
16000000: system.cpu.fetch1: Log4GUI: fetch1: 16000000: 0: 100bc: <assembly>
17000000: system.cpu.writeback: Log4GUI: writeback: 17000000: 0: 100b0: addi x3, x3, 748
17000000: system.cpu.writeback: REGISTERS
17000000: global: x0=0x00000000
17000000: global: x1=0x00011318
17000000: global: x2=0x00011358
17000000: global: x3=0x00011398
17000000: global: x4=0x00000000
17000000: global: x5=0x00000000
17000000: global: x6=0x00000000
17000000: global: x7=0x00000000
17000000: global: x8=0x00000000
17000000: global: x9=0x00000000
17000000: global: x10=0x00000000
17000000: global: x11=0x00000000
17000000: global: x12=0x00000000
17000000: global: x13=0x00000000
17000000: global: x14=0x00000000
17000000: global: x15=0x00000000
17000000: global: x16=0x00000000
17000000: global: x17=0x00000000
17000000: global: x18=0x00000000
17000000: global: x19=0x00000000
17000000: global: x20=0x00000000
17000000: global: x21=0x00000000
17000000: global: x22=0x00000000
17000000: global: x23=0x00000000
17000000: global: x24=0x00000000
17000000: global: x25=0x00000000
17000000: global: x26=0x00000000
17000000: global: x27=0x00000000
17000000: global: x28=0x00000000
17000000: global: x29=0x00000000
17000000: global: x30=0x00000000
17000000: global: x31=0x00000000
17000000: global: f0=0x00000000
17000000: global: f1=0x4019999a
17000000: global: f2=0x00000000
17000000: global: f3=0x00000000
17000000: global: f4=0x00000000
17000000: global: f5=0x00000000
17000000: global: f6=0x00000000
17000000: global: f7=0x00000000
17000000: global: f8=0x00000000
17000000: global: f9=0x00000000
17000000: global: f10=0x00000000
17000000: global: f11=0x00000000
17000000: global: f12=0x00000000
17000000: global: f13=0x00000000
17000000: global: f14=0x00000000
17000000: global: f15=0x00000000
17000000: global: f16=0x00000000
17000000: global: f17=0x00000000
17000000: global: f18=0x00000000
17000000: global: f19=0x00000000
17000000: global: f20=0x00000000
17000000: global: f21=0x00000000
17000000: global: f22=0x00000000
17000000: global: f23=0x00000000
17000000: global: f24=0x00000000
17000000: global: f25=0x00000000
17000000: global: f26=0x00000000
17000000: global: f27=0x00000000
17000000: global: f28=0x00000000
17000000: global: f29=0x00000000
17000000: global: f30=0x00000000
17000000: global: f31=0x00000000
17000000: system.cpu.memory: Log4GUI: memory: 17000000: 0: 100b4: lb x4, 0(x3)
17000000: system.cpu.execute: Log4GUI: execute: 17000000: 0: 100b8: auipc x3, 1: 0
17000000: system.cpu.decode: Log4GUI: decode: 17000000: 0: 100bc: addi x3, x3, 741
17000000: system.cpu.fetch1: Log4GUI: fetch1: 17000000: 0: 100c0: <assembly>
18000000: system.cpu.writeback: Log4GUI: writeback: 18000000: 0: 100b4: lb x4, 0(x3)
18000000: system.cpu.writeback: REGISTERS
18000000: global: x0=0x00000000
18000000: global: x1=0x00011318
18000000: global: x2=0x00011358
18000000: global: x3=0x00011398
18000000: global: x4=0xffffffab
18000000: global: x5=0x00000000
18000000: global: x6=0x00000000
18000000: global: x7=0x00000000
18000000: global: x8=0x00000000
18000000: global: x9=0x00000000
18000000: global: x10=0x00000000
18000000: global: x11=0x00000000
18000000: global: x12=0x00000000
18000000: global: x13=0x00000000
18000000: global: x14=0x00000000
18000000: global: x15=0x00000000
18000000: global: x16=0x00000000
18000000: global: x17=0x00000000
18000000: global: x18=0x00000000
18000000: global: x19=0x00000000
18000000: global: x20=0x00000000
18000000: global: x21=0x00000000
18000000: global: x22=0x00000000
18000000: global: x23=0x00000000
18000000: global: x24=0x00000000
18000000: global: x25=0x00000000
18000000: global: x26=0x00000000
18000000: global: x27=0x00000000
18000000: global: x28=0x00000000
18000000: global: x29=0x00000000
18000000: global: x30=0x00000000
18000000: global: x31=0x00000000
18000000: global: f0=0x00000000
18000000: global: f1=0x4019999a
18000000: global: f2=0x00000000
18000000: global: f3=0x00000000
18000000: global: f4=0x00000000
18000000: global: f5=0x00000000
18000000: global: f6=0x00000000
18000000: global: f7=0x00000000
18000000: global: f8=0x00000000
18000000: global: f9=0x00000000
18000000: global: f10=0x00000000
18000000: global: f11=0x00000000
18000000: global: f12=0x00000000
18000000: global: f13=0x00000000
18000000: global: f14=0x00000000
18000000: global: f15=0x00000000
18000000: global: f16=0x00000000
18000000: global: f17=0x00000000
18000000: global: f18=0x00000000
18000000: global: f19=0x00000000
18000000: global: f20=0x00000000
18000000: global: f21=0x00000000
18000000: global: f22=0x00000000
18000000: global: f23=0x00000000
18000000: global: f24=0x00000000
18000000: global: f25=0x00000000
18000000: global: f26=0x00000000
18000000: global: f27=0x00000000
18000000: global: f28=0x00000000
18000000: global: f29=0x00000000
18000000: global: f30=0x00000000
18000000: global: f31=0x00000000
18000000: system.cpu.memory: Log4GUI: memory: 18000000: 0: 100b8: auipc x3, 1
18000000: system.cpu.execute: Log4GUI: execute: 18000000: 0: 100bc: addi x3, x3, 741: 0
18000000: system.cpu.decode: Log4GUI: decode: 18000000: 0: 100c0: lb x5, 0(x3)
18000000: system.cpu.fetch1: Log4GUI: fetch1: 18000000: 0: 100c4: <assembly>
19000000: system.cpu.writeback: Log4GUI: writeback: 19000000: 0: 100b8: auipc x3, 1
19000000: system.cpu.writeback: REGISTERS
19000000: global: x0=0x00000000
19000000: global: x1=0x00011318
19000000: global: x2=0x00011358
19000000: global: x3=0x000110b8
19000000: global: x4=0xffffffab
19000000: global: x5=0x00000000
19000000: global: x6=0x00000000
19000000: global: x7=0x00000000
19000000: global: x8=0x00000000
19000000: global: x9=0x00000000
19000000: global: x10=0x00000000
19000000: global: x11=0x00000000
19000000: global: x12=0x00000000
19000000: global: x13=0x00000000
19000000: global: x14=0x00000000
19000000: global: x15=0x00000000
19000000: global: x16=0x00000000
19000000: global: x17=0x00000000
19000000: global: x18=0x00000000
19000000: global: x19=0x00000000
19000000: global: x20=0x00000000
19000000: global: x21=0x00000000
19000000: global: x22=0x00000000
19000000: global: x23=0x00000000
19000000: global: x24=0x00000000
19000000: global: x25=0x00000000
19000000: global: x26=0x00000000
19000000: global: x27=0x00000000
19000000: global: x28=0x00000000
19000000: global: x29=0x00000000
19000000: global: x30=0x00000000
19000000: global: x31=0x00000000
19000000: global: f0=0x00000000
19000000: global: f1=0x4019999a
19000000: global: f2=0x00000000
19000000: global: f3=0x00000000
19000000: global: f4=0x00000000
19000000: global: f5=0x00000000
19000000: global: f6=0x00000000
19000000: global: f7=0x00000000
19000000: global: f8=0x00000000
19000000: global: f9=0x00000000
19000000: global: f10=0x00000000
19000000: global: f11=0x00000000
19000000: global: f12=0x00000000
19000000: global: f13=0x00000000
19000000: global: f14=0x00000000
19000000: global: f15=0x00000000
19000000: global: f16=0x00000000
19000000: global: f17=0x00000000
19000000: global: f18=0x00000000
19000000: global: f19=0x00000000
19000000: global: f20=0x00000000
19000000: global: f21=0x00000000
19000000: global: f22=0x00000000
19000000: global: f23=0x00000000
19000000: global: f24=0x00000000
19000000: global: f25=0x00000000
19000000: global: f26=0x00000000
19000000: global: f27=0x00000000
19000000: global: f28=0x00000000
19000000: global: f29=0x00000000
19000000: global: f30=0x00000000
19000000: global: f31=0x00000000
19000000: system.cpu.memory: Log4GUI: memory: 19000000: 0: 100bc: addi x3, x3, 741
19000000: system.cpu.execute: Log4GUI: execute: 19000000: 0: 100c0: lb x5, 0(x3): 0
19000000: system.cpu.decode: Log4GUI: decode: 19000000: 0: 100c4: auipc x8, 1
19000000: system.cpu.fetch1: Log4GUI: fetch1: 19000000: 0: 100c8: <assembly>
20000000: system.cpu.writeback: Log4GUI: writeback: 20000000: 0: 100bc: addi x3, x3, 741
20000000: system.cpu.writeback: REGISTERS
20000000: global: x0=0x00000000
20000000: global: x1=0x00011318
20000000: global: x2=0x00011358
20000000: global: x3=0x0001139d
20000000: global: x4=0xffffffab
20000000: global: x5=0x00000000
20000000: global: x6=0x00000000
20000000: global: x7=0x00000000
20000000: global: x8=0x00000000
20000000: global: x9=0x00000000
20000000: global: x10=0x00000000
20000000: global: x11=0x00000000
20000000: global: x12=0x00000000
20000000: global: x13=0x00000000
20000000: global: x14=0x00000000
20000000: global: x15=0x00000000
20000000: global: x16=0x00000000
20000000: global: x17=0x00000000
20000000: global: x18=0x00000000
20000000: global: x19=0x00000000
20000000: global: x20=0x00000000
20000000: global: x21=0x00000000
20000000: global: x22=0x00000000
20000000: global: x23=0x00000000
20000000: global: x24=0x00000000
20000000: global: x25=0x00000000
20000000: global: x26=0x00000000
20000000: global: x27=0x00000000
20000000: global: x28=0x00000000
20000000: global: x29=0x00000000
20000000: global: x30=0x00000000
20000000: global: x31=0x00000000
20000000: global: f0=0x00000000
20000000: global: f1=0x4019999a
20000000: global: f2=0x00000000
20000000: global: f3=0x00000000
20000000: global: f4=0x00000000
20000000: global: f5=0x00000000
20000000: global: f6=0x00000000
20000000: global: f7=0x00000000
20000000: global: f8=0x00000000
20000000: global: f9=0x00000000
20000000: global: f10=0x00000000
20000000: global: f11=0x00000000
20000000: global: f12=0x00000000
20000000: global: f13=0x00000000
20000000: global: f14=0x00000000
20000000: global: f15=0x00000000
20000000: global: f16=0x00000000
20000000: global: f17=0x00000000
20000000: global: f18=0x00000000
20000000: global: f19=0x00000000
20000000: global: f20=0x00000000
20000000: global: f21=0x00000000
20000000: global: f22=0x00000000
20000000: global: f23=0x00000000
20000000: global: f24=0x00000000
20000000: global: f25=0x00000000
20000000: global: f26=0x00000000
20000000: global: f27=0x00000000
20000000: global: f28=0x00000000
20000000: global: f29=0x00000000
20000000: global: f30=0x00000000
20000000: global: f31=0x00000000
20000000: system.cpu.memory: Log4GUI: memory: 20000000: 0: 100c0: lb x5, 0(x3)
20000000: system.cpu.execute: Log4GUI: execute: 20000000: 0: 100c4: auipc x8, 1: 0
20000000: system.cpu.decode: Log4GUI: decode: 20000000: 0: 100c8: addi x8, x8, 725
20000000: system.cpu.fetch1: Log4GUI: fetch1: 20000000: 0: 100cc: <assembly>
21000000: system.cpu.writeback: Log4GUI: writeback: 21000000: 0: 100c0: lb x5, 0(x3)
21000000: system.cpu.writeback: REGISTERS
21000000: global: x0=0x00000000
21000000: global: x1=0x00011318
21000000: global: x2=0x00011358
21000000: global: x3=0x0001139d
21000000: global: x4=0xffffffab
21000000: global: x5=0x00000010
21000000: global: x6=0x00000000
21000000: global: x7=0x00000000
21000000: global: x8=0x00000000
21000000: global: x9=0x00000000
21000000: global: x10=0x00000000
21000000: global: x11=0x00000000
21000000: global: x12=0x00000000
21000000: global: x13=0x00000000
21000000: global: x14=0x00000000
21000000: global: x15=0x00000000
21000000: global: x16=0x00000000
21000000: global: x17=0x00000000
21000000: global: x18=0x00000000
21000000: global: x19=0x00000000
21000000: global: x20=0x00000000
21000000: global: x21=0x00000000
21000000: global: x22=0x00000000
21000000: global: x23=0x00000000
21000000: global: x24=0x00000000
21000000: global: x25=0x00000000
21000000: global: x26=0x00000000
21000000: global: x27=0x00000000
21000000: global: x28=0x00000000
21000000: global: x29=0x00000000
21000000: global: x30=0x00000000
21000000: global: x31=0x00000000
21000000: global: f0=0x00000000
21000000: global: f1=0x4019999a
21000000: global: f2=0x00000000
21000000: global: f3=0x00000000
21000000: global: f4=0x00000000
21000000: global: f5=0x00000000
21000000: global: f6=0x00000000
21000000: global: f7=0x00000000
21000000: global: f8=0x00000000
21000000: global: f9=0x00000000
21000000: global: f10=0x00000000
21000000: global: f11=0x00000000
21000000: global: f12=0x00000000
21000000: global: f13=0x00000000
21000000: global: f14=0x00000000
21000000: global: f15=0x00000000
21000000: global: f16=0x00000000
21000000: global: f17=0x00000000
21000000: global: f18=0x00000000
21000000: global: f19=0x00000000
21000000: global: f20=0x00000000
21000000: global: f21=0x00000000
21000000: global: f22=0x00000000
21000000: global: f23=0x00000000
21000000: global: f24=0x00000000
21000000: global: f25=0x00000000
21000000: global: f26=0x00000000
21000000: global: f27=0x00000000
21000000: global: f28=0x00000000
21000000: global: f29=0x00000000
21000000: global: f30=0x00000000
21000000: global: f31=0x00000000
21000000: system.cpu.memory: Log4GUI: memory: 21000000: 0: 100c4: auipc x8, 1
21000000: system.cpu.execute: Log4GUI: execute: 21000000: 0: 100c8: addi x8, x8, 725: 0
21000000: system.cpu.decode: Log4GUI: decode: 21000000: 0: 100cc: lw x9, 0(x8)
21000000: system.cpu.fetch1: Log4GUI: fetch1: 21000000: 0: 100d0: <assembly>
22000000: system.cpu.writeback: Log4GUI: writeback: 22000000: 0: 100c4: auipc x8, 1
22000000: system.cpu.writeback: REGISTERS
22000000: global: x0=0x00000000
22000000: global: x1=0x00011318
22000000: global: x2=0x00011358
22000000: global: x3=0x0001139d
22000000: global: x4=0xffffffab
22000000: global: x5=0x00000010
22000000: global: x6=0x00000000
22000000: global: x7=0x00000000
22000000: global: x8=0x000110c4
22000000: global: x9=0x00000000
22000000: global: x10=0x00000000
22000000: global: x11=0x00000000
22000000: global: x12=0x00000000
22000000: global: x13=0x00000000
22000000: global: x14=0x00000000
22000000: global: x15=0x00000000
22000000: global: x16=0x00000000
22000000: global: x17=0x00000000
22000000: global: x18=0x00000000
22000000: global: x19=0x00000000
22000000: global: x20=0x00000000
22000000: global: x21=0x00000000
22000000: global: x22=0x00000000
22000000: global: x23=0x00000000
22000000: global: x24=0x00000000
22000000: global: x25=0x00000000
22000000: global: x26=0x00000000
22000000: global: x27=0x00000000
22000000: global: x28=0x00000000
22000000: global: x29=0x00000000
22000000: global: x30=0x00000000
22000000: global: x31=0x00000000
22000000: global: f0=0x00000000
22000000: global: f1=0x4019999a
22000000: global: f2=0x00000000
22000000: global: f3=0x00000000
22000000: global: f4=0x00000000
22000000: global: f5=0x00000000
22000000: global: f6=0x00000000
22000000: global: f7=0x00000000
22000000: global: f8=0x00000000
22000000: global: f9=0x00000000
22000000: global: f10=0x00000000
22000000: global: f11=0x00000000
22000000: global: f12=0x00000000
22000000: global: f13=0x00000000
22000000: global: f14=0x00000000
22000000: global: f15=0x00000000
22000000: global: f16=0x00000000
22000000: global: f17=0x00000000
22000000: global: f18=0x00000000
22000000: global: f19=0x00000000
22000000: global: f20=0x00000000
22000000: global: f21=0x00000000
22000000: global: f22=0x00000000
22000000: global: f23=0x00000000
22000000: global: f24=0x00000000
22000000: global: f25=0x00000000
22000000: global: f26=0x00000000
22000000: global: f27=0x00000000
22000000: global: f28=0x00000000
22000000: global: f29=0x00000000
22000000: global: f30=0x00000000
22000000: global: f31=0x00000000
22000000: system.cpu.memory: Log4GUI: memory: 22000000: 0: 100c8: addi x8, x8, 725
22000000: system.cpu.execute: Log4GUI: execute: 22000000: 0: 100cc: lw x9, 0(x8): 0
22000000: system.cpu.decode: Log4GUI: decode: 22000000: 0: 100d0: auipc x11, 1
22000000: system.cpu.fetch1: Log4GUI: fetch1: 22000000: 0: 100d4: <assembly>
23000000: system.cpu.writeback: Log4GUI: writeback: 23000000: 0: 100c8: addi x8, x8, 725
23000000: system.cpu.writeback: REGISTERS
23000000: global: x0=0x00000000
23000000: global: x1=0x00011318
23000000: global: x2=0x00011358
23000000: global: x3=0x0001139d
23000000: global: x4=0xffffffab
23000000: global: x5=0x00000010
23000000: global: x6=0x00000000
23000000: global: x7=0x00000000
23000000: global: x8=0x00011399
23000000: global: x9=0x00000000
23000000: global: x10=0x00000000
23000000: global: x11=0x00000000
23000000: global: x12=0x00000000
23000000: global: x13=0x00000000
23000000: global: x14=0x00000000
23000000: global: x15=0x00000000
23000000: global: x16=0x00000000
23000000: global: x17=0x00000000
23000000: global: x18=0x00000000
23000000: global: x19=0x00000000
23000000: global: x20=0x00000000
23000000: global: x21=0x00000000
23000000: global: x22=0x00000000
23000000: global: x23=0x00000000
23000000: global: x24=0x00000000
23000000: global: x25=0x00000000
23000000: global: x26=0x00000000
23000000: global: x27=0x00000000
23000000: global: x28=0x00000000
23000000: global: x29=0x00000000
23000000: global: x30=0x00000000
23000000: global: x31=0x00000000
23000000: global: f0=0x00000000
23000000: global: f1=0x4019999a
23000000: global: f2=0x00000000
23000000: global: f3=0x00000000
23000000: global: f4=0x00000000
23000000: global: f5=0x00000000
23000000: global: f6=0x00000000
23000000: global: f7=0x00000000
23000000: global: f8=0x00000000
23000000: global: f9=0x00000000
23000000: global: f10=0x00000000
23000000: global: f11=0x00000000
23000000: global: f12=0x00000000
23000000: global: f13=0x00000000
23000000: global: f14=0x00000000
23000000: global: f15=0x00000000
23000000: global: f16=0x00000000
23000000: global: f17=0x00000000
23000000: global: f18=0x00000000
23000000: global: f19=0x00000000
23000000: global: f20=0x00000000
23000000: global: f21=0x00000000
23000000: global: f22=0x00000000
23000000: global: f23=0x00000000
23000000: global: f24=0x00000000
23000000: global: f25=0x00000000
23000000: global: f26=0x00000000
23000000: global: f27=0x00000000
23000000: global: f28=0x00000000
23000000: global: f29=0x00000000
23000000: global: f30=0x00000000
23000000: global: f31=0x00000000
23000000: system.cpu.memory: Log4GUI: memory: 23000000: 0: 100cc: lw x9, 0(x8)
23000000: system.cpu.execute: Log4GUI: execute: 23000000: 0: 100d0: auipc x11, 1: 0
23000000: system.cpu.decode: Log4GUI: decode: 23000000: 0: 100d4: addi x11, x11, 712
23000000: system.cpu.fetch1: Log4GUI: fetch1: 23000000: 0: 100d8: <assembly>
24000000: system.cpu.writeback: Log4GUI: writeback: 24000000: 0: 100cc: lw x9, 0(x8)
24000000: system.cpu.writeback: REGISTERS
24000000: global: x0=0x00000000
24000000: global: x1=0x00011318
24000000: global: x2=0x00011358
24000000: global: x3=0x0001139d
24000000: global: x4=0xffffffab
24000000: global: x5=0x00000010
24000000: global: x6=0x00000000
24000000: global: x7=0x00000000
24000000: global: x8=0x00011399
24000000: global: x9=0x7f800000
24000000: global: x10=0x00000000
24000000: global: x11=0x00000000
24000000: global: x12=0x00000000
24000000: global: x13=0x00000000
24000000: global: x14=0x00000000
24000000: global: x15=0x00000000
24000000: global: x16=0x00000000
24000000: global: x17=0x00000000
24000000: global: x18=0x00000000
24000000: global: x19=0x00000000
24000000: global: x20=0x00000000
24000000: global: x21=0x00000000
24000000: global: x22=0x00000000
24000000: global: x23=0x00000000
24000000: global: x24=0x00000000
24000000: global: x25=0x00000000
24000000: global: x26=0x00000000
24000000: global: x27=0x00000000
24000000: global: x28=0x00000000
24000000: global: x29=0x00000000
24000000: global: x30=0x00000000
24000000: global: x31=0x00000000
24000000: global: f0=0x00000000
24000000: global: f1=0x4019999a
24000000: global: f2=0x00000000
24000000: global: f3=0x00000000
24000000: global: f4=0x00000000
24000000: global: f5=0x00000000
24000000: global: f6=0x00000000
24000000: global: f7=0x00000000
24000000: global: f8=0x00000000
24000000: global: f9=0x00000000
24000000: global: f10=0x00000000
24000000: global: f11=0x00000000
24000000: global: f12=0x00000000
24000000: global: f13=0x00000000
24000000: global: f14=0x00000000
24000000: global: f15=0x00000000
24000000: global: f16=0x00000000
24000000: global: f17=0x00000000
24000000: global: f18=0x00000000
24000000: global: f19=0x00000000
24000000: global: f20=0x00000000
24000000: global: f21=0x00000000
24000000: global: f22=0x00000000
24000000: global: f23=0x00000000
24000000: global: f24=0x00000000
24000000: global: f25=0x00000000
24000000: global: f26=0x00000000
24000000: global: f27=0x00000000
24000000: global: f28=0x00000000
24000000: global: f29=0x00000000
24000000: global: f30=0x00000000
24000000: global: f31=0x00000000
24000000: system.cpu.memory: Log4GUI: memory: 24000000: 0: 100d0: auipc x11, 1
24000000: system.cpu.execute: Log4GUI: execute: 24000000: 0: 100d4: addi x11, x11, 712: 0
24000000: system.cpu.decode: Log4GUI: decode: 24000000: 0: 100d8: add x6, x0, x0
24000000: system.cpu.fetch1: Log4GUI: fetch1: 24000000: 0: 100dc: <assembly>
25000000: system.cpu.writeback: Log4GUI: writeback: 25000000: 0: 100d0: auipc x11, 1
25000000: system.cpu.writeback: REGISTERS
25000000: global: x0=0x00000000
25000000: global: x1=0x00011318
25000000: global: x2=0x00011358
25000000: global: x3=0x0001139d
25000000: global: x4=0xffffffab
25000000: global: x5=0x00000010
25000000: global: x6=0x00000000
25000000: global: x7=0x00000000
25000000: global: x8=0x00011399
25000000: global: x9=0x7f800000
25000000: global: x10=0x00000000
25000000: global: x11=0x000110d0
25000000: global: x12=0x00000000
25000000: global: x13=0x00000000
25000000: global: x14=0x00000000
25000000: global: x15=0x00000000
25000000: global: x16=0x00000000
25000000: global: x17=0x00000000
25000000: global: x18=0x00000000
25000000: global: x19=0x00000000
25000000: global: x20=0x00000000
25000000: global: x21=0x00000000
25000000: global: x22=0x00000000
25000000: global: x23=0x00000000
25000000: global: x24=0x00000000
25000000: global: x25=0x00000000
25000000: global: x26=0x00000000
25000000: global: x27=0x00000000
25000000: global: x28=0x00000000
25000000: global: x29=0x00000000
25000000: global: x30=0x00000000
25000000: global: x31=0x00000000
25000000: global: f0=0x00000000
25000000: global: f1=0x4019999a
25000000: global: f2=0x00000000
25000000: global: f3=0x00000000
25000000: global: f4=0x00000000
25000000: global: f5=0x00000000
25000000: global: f6=0x00000000
25000000: global: f7=0x00000000
25000000: global: f8=0x00000000
25000000: global: f9=0x00000000
25000000: global: f10=0x00000000
25000000: global: f11=0x00000000
25000000: global: f12=0x00000000
25000000: global: f13=0x00000000
25000000: global: f14=0x00000000
25000000: global: f15=0x00000000
25000000: global: f16=0x00000000
25000000: global: f17=0x00000000
25000000: global: f18=0x00000000
25000000: global: f19=0x00000000
25000000: global: f20=0x00000000
25000000: global: f21=0x00000000
25000000: global: f22=0x00000000
25000000: global: f23=0x00000000
25000000: global: f24=0x00000000
25000000: global: f25=0x00000000
25000000: global: f26=0x00000000
25000000: global: f27=0x00000000
25000000: global: f28=0x00000000
25000000: global: f29=0x00000000
25000000: global: f30=0x00000000
25000000: global: f31=0x00000000
25000000: system.cpu.memory: Log4GUI: memory: 25000000: 0: 100d4: addi x11, x11, 712
25000000: system.cpu.execute: Log4GUI: execute: 25000000: 0: 100d8: add x6, x0, x0: 0
25000000: system.cpu.decode: Log4GUI: decode: 25000000: 0: 100dc: slli x7, x6, 2
25000000: system.cpu.fetch1: Log4GUI: fetch1: 25000000: 0: 100e0: <assembly>
26000000: system.cpu.writeback: Log4GUI: writeback: 26000000: 0: 100d4: addi x11, x11, 712
26000000: system.cpu.writeback: REGISTERS
26000000: global: x0=0x00000000
26000000: global: x1=0x00011318
26000000: global: x2=0x00011358
26000000: global: x3=0x0001139d
26000000: global: x4=0xffffffab
26000000: global: x5=0x00000010
26000000: global: x6=0x00000000
26000000: global: x7=0x00000000
26000000: global: x8=0x00011399
26000000: global: x9=0x7f800000
26000000: global: x10=0x00000000
26000000: global: x11=0x00011398
26000000: global: x12=0x00000000
26000000: global: x13=0x00000000
26000000: global: x14=0x00000000
26000000: global: x15=0x00000000
26000000: global: x16=0x00000000
26000000: global: x17=0x00000000
26000000: global: x18=0x00000000
26000000: global: x19=0x00000000
26000000: global: x20=0x00000000
26000000: global: x21=0x00000000
26000000: global: x22=0x00000000
26000000: global: x23=0x00000000
26000000: global: x24=0x00000000
26000000: global: x25=0x00000000
26000000: global: x26=0x00000000
26000000: global: x27=0x00000000
26000000: global: x28=0x00000000
26000000: global: x29=0x00000000
26000000: global: x30=0x00000000
26000000: global: x31=0x00000000
26000000: global: f0=0x00000000
26000000: global: f1=0x4019999a
26000000: global: f2=0x00000000
26000000: global: f3=0x00000000
26000000: global: f4=0x00000000
26000000: global: f5=0x00000000
26000000: global: f6=0x00000000
26000000: global: f7=0x00000000
26000000: global: f8=0x00000000
26000000: global: f9=0x00000000
26000000: global: f10=0x00000000
26000000: global: f11=0x00000000
26000000: global: f12=0x00000000
26000000: global: f13=0x00000000
26000000: global: f14=0x00000000
26000000: global: f15=0x00000000
26000000: global: f16=0x00000000
26000000: global: f17=0x00000000
26000000: global: f18=0x00000000
26000000: global: f19=0x00000000
26000000: global: f20=0x00000000
26000000: global: f21=0x00000000
26000000: global: f22=0x00000000
26000000: global: f23=0x00000000
26000000: global: f24=0x00000000
26000000: global: f25=0x00000000
26000000: global: f26=0x00000000
26000000: global: f27=0x00000000
26000000: global: f28=0x00000000
26000000: global: f29=0x00000000
26000000: global: f30=0x00000000
26000000: global: f31=0x00000000
26000000: system.cpu.memory: Log4GUI: memory: 26000000: 0: 100d8: add x6, x0, x0
26000000: system.cpu.execute: Log4GUI: execute: 26000000: 0: 100dc: slli x7, x6, 2: 0
26000000: system.cpu.decode: Log4GUI: decode: 26000000: 0: 100e0: fcvt_s_w f3, x4
26000000: system.cpu.fetch1: Log4GUI: fetch1: 26000000: 0: 100e4: <assembly>
27000000: system.cpu.writeback: Log4GUI: writeback: 27000000: 0: 100d8: add x6, x0, x0
27000000: system.cpu.writeback: REGISTERS
27000000: global: x0=0x00000000
27000000: global: x1=0x00011318
27000000: global: x2=0x00011358
27000000: global: x3=0x0001139d
27000000: global: x4=0xffffffab
27000000: global: x5=0x00000010
27000000: global: x6=0x00000000
27000000: global: x7=0x00000000
27000000: global: x8=0x00011399
27000000: global: x9=0x7f800000
27000000: global: x10=0x00000000
27000000: global: x11=0x00011398
27000000: global: x12=0x00000000
27000000: global: x13=0x00000000
27000000: global: x14=0x00000000
27000000: global: x15=0x00000000
27000000: global: x16=0x00000000
27000000: global: x17=0x00000000
27000000: global: x18=0x00000000
27000000: global: x19=0x00000000
27000000: global: x20=0x00000000
27000000: global: x21=0x00000000
27000000: global: x22=0x00000000
27000000: global: x23=0x00000000
27000000: global: x24=0x00000000
27000000: global: x25=0x00000000
27000000: global: x26=0x00000000
27000000: global: x27=0x00000000
27000000: global: x28=0x00000000
27000000: global: x29=0x00000000
27000000: global: x30=0x00000000
27000000: global: x31=0x00000000
27000000: global: f0=0x00000000
27000000: global: f1=0x4019999a
27000000: global: f2=0x00000000
27000000: global: f3=0x00000000
27000000: global: f4=0x00000000
27000000: global: f5=0x00000000
27000000: global: f6=0x00000000
27000000: global: f7=0x00000000
27000000: global: f8=0x00000000
27000000: global: f9=0x00000000
27000000: global: f10=0x00000000
27000000: global: f11=0x00000000
27000000: global: f12=0x00000000
27000000: global: f13=0x00000000
27000000: global: f14=0x00000000
27000000: global: f15=0x00000000
27000000: global: f16=0x00000000
27000000: global: f17=0x00000000
27000000: global: f18=0x00000000
27000000: global: f19=0x00000000
27000000: global: f20=0x00000000
27000000: global: f21=0x00000000
27000000: global: f22=0x00000000
27000000: global: f23=0x00000000
27000000: global: f24=0x00000000
27000000: global: f25=0x00000000
27000000: global: f26=0x00000000
27000000: global: f27=0x00000000
27000000: global: f28=0x00000000
27000000: global: f29=0x00000000
27000000: global: f30=0x00000000
27000000: global: f31=0x00000000
27000000: system.cpu.memory: Log4GUI: memory: 27000000: 0: 100dc: slli x7, x6, 2
27000000: system.cpu.execute: Log4GUI: execute: 27000000: 0: 100e0: fcvt_s_w f3, x4: 3
27000000: system.cpu.decode: Log4GUI: decode: 27000000: 0: 100e4: fmv_w_x f5, x0
27000000: system.cpu.fetch1: Log4GUI: fetch1: 27000000: 0: 100e8: <assembly>
28000000: system.cpu.writeback: Log4GUI: writeback: 28000000: 0: 100dc: slli x7, x6, 2
28000000: system.cpu.writeback: REGISTERS
28000000: global: x0=0x00000000
28000000: global: x1=0x00011318
28000000: global: x2=0x00011358
28000000: global: x3=0x0001139d
28000000: global: x4=0xffffffab
28000000: global: x5=0x00000010
28000000: global: x6=0x00000000
28000000: global: x7=0x00000000
28000000: global: x8=0x00011399
28000000: global: x9=0x7f800000
28000000: global: x10=0x00000000
28000000: global: x11=0x00011398
28000000: global: x12=0x00000000
28000000: global: x13=0x00000000
28000000: global: x14=0x00000000
28000000: global: x15=0x00000000
28000000: global: x16=0x00000000
28000000: global: x17=0x00000000
28000000: global: x18=0x00000000
28000000: global: x19=0x00000000
28000000: global: x20=0x00000000
28000000: global: x21=0x00000000
28000000: global: x22=0x00000000
28000000: global: x23=0x00000000
28000000: global: x24=0x00000000
28000000: global: x25=0x00000000
28000000: global: x26=0x00000000
28000000: global: x27=0x00000000
28000000: global: x28=0x00000000
28000000: global: x29=0x00000000
28000000: global: x30=0x00000000
28000000: global: x31=0x00000000
28000000: global: f0=0x00000000
28000000: global: f1=0x4019999a
28000000: global: f2=0x00000000
28000000: global: f3=0x00000000
28000000: global: f4=0x00000000
28000000: global: f5=0x00000000
28000000: global: f6=0x00000000
28000000: global: f7=0x00000000
28000000: global: f8=0x00000000
28000000: global: f9=0x00000000
28000000: global: f10=0x00000000
28000000: global: f11=0x00000000
28000000: global: f12=0x00000000
28000000: global: f13=0x00000000
28000000: global: f14=0x00000000
28000000: global: f15=0x00000000
28000000: global: f16=0x00000000
28000000: global: f17=0x00000000
28000000: global: f18=0x00000000
28000000: global: f19=0x00000000
28000000: global: f20=0x00000000
28000000: global: f21=0x00000000
28000000: global: f22=0x00000000
28000000: global: f23=0x00000000
28000000: global: f24=0x00000000
28000000: global: f25=0x00000000
28000000: global: f26=0x00000000
28000000: global: f27=0x00000000
28000000: global: f28=0x00000000
28000000: global: f29=0x00000000
28000000: global: f30=0x00000000
28000000: global: f31=0x00000000
28000000: system.cpu.execute: Log4GUI: execute: 28000000: 0: 100e4: fmv_w_x f5, x0: 3
28000000: system.cpu.execute: Log4GUI: execute: 28000000: 0: 100e0: fcvt_s_w f3, x4: 3
28000000: system.cpu.decode: Log4GUI: decode: 28000000: 0: 100e8: beq x6, x5, 516
28000000: system.cpu.fetch1: Log4GUI: fetch1: 28000000: 0: 100ec: <assembly>
29000000: system.cpu.execute: Log4GUI: execute: 29000000: 0: 100e8: beq x6, x5, 516: 0
29000000: system.cpu.execute: Log4GUI: execute: 29000000: 0: 100e0: fcvt_s_w f3, x4: 3
29000000: system.cpu.execute: Log4GUI: execute: 29000000: 0: 100e4: fmv_w_x f5, x0: 3
29000000: system.cpu.decode: Log4GUI: decode: 29000000: 0: 100ec: add x12, x1, x7
29000000: system.cpu.fetch1: Log4GUI: fetch1: 29000000: 0: 100f0: <assembly>
30000000: system.cpu.memory: Log4GUI: memory: 30000000: 0: 100e8: beq x6, x5, 516
30000000: system.cpu.execute: Log4GUI: execute: 30000000: 0: 100ec: add x12, x1, x7: 0
30000000: system.cpu.execute: Log4GUI: execute: 30000000: 0: 100e0: fcvt_s_w f3, x4: 3
30000000: system.cpu.execute: Log4GUI: execute: 30000000: 0: 100e4: fmv_w_x f5, x0: 3
30000000: system.cpu.decode: Log4GUI: decode: 30000000: 0: 100f0: flw f1, 0(x12)
30000000: system.cpu.fetch1: Log4GUI: fetch1: 30000000: 0: 100f4: <assembly>
31000000: system.cpu.writeback: Log4GUI: writeback: 31000000: 0: 100e8: beq x6, x5, 516
31000000: system.cpu.writeback: REGISTERS
31000000: global: x0=0x00000000
31000000: global: x1=0x00011318
31000000: global: x2=0x00011358
31000000: global: x3=0x0001139d
31000000: global: x4=0xffffffab
31000000: global: x5=0x00000010
31000000: global: x6=0x00000000
31000000: global: x7=0x00000000
31000000: global: x8=0x00011399
31000000: global: x9=0x7f800000
31000000: global: x10=0x00000000
31000000: global: x11=0x00011398
31000000: global: x12=0x00000000
31000000: global: x13=0x00000000
31000000: global: x14=0x00000000
31000000: global: x15=0x00000000
31000000: global: x16=0x00000000
31000000: global: x17=0x00000000
31000000: global: x18=0x00000000
31000000: global: x19=0x00000000
31000000: global: x20=0x00000000
31000000: global: x21=0x00000000
31000000: global: x22=0x00000000
31000000: global: x23=0x00000000
31000000: global: x24=0x00000000
31000000: global: x25=0x00000000
31000000: global: x26=0x00000000
31000000: global: x27=0x00000000
31000000: global: x28=0x00000000
31000000: global: x29=0x00000000
31000000: global: x30=0x00000000
31000000: global: x31=0x00000000
31000000: global: f0=0x00000000
31000000: global: f1=0x4019999a
31000000: global: f2=0x00000000
31000000: global: f3=0x00000000
31000000: global: f4=0x00000000
31000000: global: f5=0x00000000
31000000: global: f6=0x00000000
31000000: global: f7=0x00000000
31000000: global: f8=0x00000000
31000000: global: f9=0x00000000
31000000: global: f10=0x00000000
31000000: global: f11=0x00000000
31000000: global: f12=0x00000000
31000000: global: f13=0x00000000
31000000: global: f14=0x00000000
31000000: global: f15=0x00000000
31000000: global: f16=0x00000000
31000000: global: f17=0x00000000
31000000: global: f18=0x00000000
31000000: global: f19=0x00000000
31000000: global: f20=0x00000000
31000000: global: f21=0x00000000
31000000: global: f22=0x00000000
31000000: global: f23=0x00000000
31000000: global: f24=0x00000000
31000000: global: f25=0x00000000
31000000: global: f26=0x00000000
31000000: global: f27=0x00000000
31000000: global: f28=0x00000000
31000000: global: f29=0x00000000
31000000: global: f30=0x00000000
31000000: global: f31=0x00000000
31000000: system.cpu.memory: Log4GUI: memory: 31000000: 0: 100e0: fcvt_s_w f3, x4
31000000: system.cpu.execute: Log4GUI: execute: 31000000: 0: 100e4: fmv_w_x f5, x0: 3
31000000: system.cpu.execute: Log4GUI: execute: 31000000: 1: 100ec: add x12, x1, x7: 0
31000000: system.cpu.decode: Log4GUI: decode: 31000000: 1: 100f0: flw f1, 0(x12)
31000000: system.cpu.fetch1: Log4GUI: fetch1: 31000000: 1: 100f4: <assembly>
32000000: system.cpu.writeback: Log4GUI: writeback: 32000000: 0: 100e0: fcvt_s_w f3, x4
32000000: system.cpu.writeback: REGISTERS
32000000: global: x0=0x00000000
32000000: global: x1=0x00011318
32000000: global: x2=0x00011358
32000000: global: x3=0x0001139d
32000000: global: x4=0xffffffab
32000000: global: x5=0x00000010
32000000: global: x6=0x00000000
32000000: global: x7=0x00000000
32000000: global: x8=0x00011399
32000000: global: x9=0x7f800000
32000000: global: x10=0x00000000
32000000: global: x11=0x00011398
32000000: global: x12=0x00000000
32000000: global: x13=0x00000000
32000000: global: x14=0x00000000
32000000: global: x15=0x00000000
32000000: global: x16=0x00000000
32000000: global: x17=0x00000000
32000000: global: x18=0x00000000
32000000: global: x19=0x00000000
32000000: global: x20=0x00000000
32000000: global: x21=0x00000000
32000000: global: x22=0x00000000
32000000: global: x23=0x00000000
32000000: global: x24=0x00000000
32000000: global: x25=0x00000000
32000000: global: x26=0x00000000
32000000: global: x27=0x00000000
32000000: global: x28=0x00000000
32000000: global: x29=0x00000000
32000000: global: x30=0x00000000
32000000: global: x31=0x00000000
32000000: global: f0=0x00000000
32000000: global: f1=0x4019999a
32000000: global: f2=0x00000000
32000000: global: f3=0xc2aa0000
32000000: global: f4=0x00000000
32000000: global: f5=0x00000000
32000000: global: f6=0x00000000
32000000: global: f7=0x00000000
32000000: global: f8=0x00000000
32000000: global: f9=0x00000000
32000000: global: f10=0x00000000
32000000: global: f11=0x00000000
32000000: global: f12=0x00000000
32000000: global: f13=0x00000000
32000000: global: f14=0x00000000
32000000: global: f15=0x00000000
32000000: global: f16=0x00000000
32000000: global: f17=0x00000000
32000000: global: f18=0x00000000
32000000: global: f19=0x00000000
32000000: global: f20=0x00000000
32000000: global: f21=0x00000000
32000000: global: f22=0x00000000
32000000: global: f23=0x00000000
32000000: global: f24=0x00000000
32000000: global: f25=0x00000000
32000000: global: f26=0x00000000
32000000: global: f27=0x00000000
32000000: global: f28=0x00000000
32000000: global: f29=0x00000000
32000000: global: f30=0x00000000
32000000: global: f31=0x00000000
32000000: system.cpu.memory: Log4GUI: memory: 32000000: 0: 100e4: fmv_w_x f5, x0
32000000: system.cpu.decode: Log4GUI: decode: 32000000: 1: 100f0: flw f1, 0(x12)
32000000: system.cpu.fetch1: Log4GUI: fetch1: 32000000: 1: 100f4: <assembly>
33000000: system.cpu.writeback: Log4GUI: writeback: 33000000: 0: 100e4: fmv_w_x f5, x0
33000000: system.cpu.writeback: REGISTERS
33000000: global: x0=0x00000000
33000000: global: x1=0x00011318
33000000: global: x2=0x00011358
33000000: global: x3=0x0001139d
33000000: global: x4=0xffffffab
33000000: global: x5=0x00000010
33000000: global: x6=0x00000000
33000000: global: x7=0x00000000
33000000: global: x8=0x00011399
33000000: global: x9=0x7f800000
33000000: global: x10=0x00000000
33000000: global: x11=0x00011398
33000000: global: x12=0x00000000
33000000: global: x13=0x00000000
33000000: global: x14=0x00000000
33000000: global: x15=0x00000000
33000000: global: x16=0x00000000
33000000: global: x17=0x00000000
33000000: global: x18=0x00000000
33000000: global: x19=0x00000000
33000000: global: x20=0x00000000
33000000: global: x21=0x00000000
33000000: global: x22=0x00000000
33000000: global: x23=0x00000000
33000000: global: x24=0x00000000
33000000: global: x25=0x00000000
33000000: global: x26=0x00000000
33000000: global: x27=0x00000000
33000000: global: x28=0x00000000
33000000: global: x29=0x00000000
33000000: global: x30=0x00000000
33000000: global: x31=0x00000000
33000000: global: f0=0x00000000
33000000: global: f1=0x4019999a
33000000: global: f2=0x00000000
33000000: global: f3=0xc2aa0000
33000000: global: f4=0x00000000
33000000: global: f5=0x00000000
33000000: global: f6=0x00000000
33000000: global: f7=0x00000000
33000000: global: f8=0x00000000
33000000: global: f9=0x00000000
33000000: global: f10=0x00000000
33000000: global: f11=0x00000000
33000000: global: f12=0x00000000
33000000: global: f13=0x00000000
33000000: global: f14=0x00000000
33000000: global: f15=0x00000000
33000000: global: f16=0x00000000
33000000: global: f17=0x00000000
33000000: global: f18=0x00000000
33000000: global: f19=0x00000000
33000000: global: f20=0x00000000
33000000: global: f21=0x00000000
33000000: global: f22=0x00000000
33000000: global: f23=0x00000000
33000000: global: f24=0x00000000
33000000: global: f25=0x00000000
33000000: global: f26=0x00000000
33000000: global: f27=0x00000000
33000000: global: f28=0x00000000
33000000: global: f29=0x00000000
33000000: global: f30=0x00000000
33000000: global: f31=0x00000000
33000000: system.cpu.memory: Log4GUI: memory: 33000000: 0: 100ec: add x12, x1, x7
33000000: system.cpu.execute: Log4GUI: execute: 33000000: 0: 100f0: flw f1, 0(x12): 0
33000000: system.cpu.decode: Log4GUI: decode: 33000000: 0: 100f4: add x12, x2, x7
33000000: system.cpu.fetch1: Log4GUI: fetch1: 33000000: 0: 100f8: <assembly>
34000000: system.cpu.writeback: Log4GUI: writeback: 34000000: 0: 100ec: add x12, x1, x7
34000000: system.cpu.writeback: REGISTERS
34000000: global: x0=0x00000000
34000000: global: x1=0x00011318
34000000: global: x2=0x00011358
34000000: global: x3=0x0001139d
34000000: global: x4=0xffffffab
34000000: global: x5=0x00000010
34000000: global: x6=0x00000000
34000000: global: x7=0x00000000
34000000: global: x8=0x00011399
34000000: global: x9=0x7f800000
34000000: global: x10=0x00000000
34000000: global: x11=0x00011398
34000000: global: x12=0x00011318
34000000: global: x13=0x00000000
34000000: global: x14=0x00000000
34000000: global: x15=0x00000000
34000000: global: x16=0x00000000
34000000: global: x17=0x00000000
34000000: global: x18=0x00000000
34000000: global: x19=0x00000000
34000000: global: x20=0x00000000
34000000: global: x21=0x00000000
34000000: global: x22=0x00000000
34000000: global: x23=0x00000000
34000000: global: x24=0x00000000
34000000: global: x25=0x00000000
34000000: global: x26=0x00000000
34000000: global: x27=0x00000000
34000000: global: x28=0x00000000
34000000: global: x29=0x00000000
34000000: global: x30=0x00000000
34000000: global: x31=0x00000000
34000000: global: f0=0x00000000
34000000: global: f1=0x4019999a
34000000: global: f2=0x00000000
34000000: global: f3=0xc2aa0000
34000000: global: f4=0x00000000
34000000: global: f5=0x00000000
34000000: global: f6=0x00000000
34000000: global: f7=0x00000000
34000000: global: f8=0x00000000
34000000: global: f9=0x00000000
34000000: global: f10=0x00000000
34000000: global: f11=0x00000000
34000000: global: f12=0x00000000
34000000: global: f13=0x00000000
34000000: global: f14=0x00000000
34000000: global: f15=0x00000000
34000000: global: f16=0x00000000
34000000: global: f17=0x00000000
34000000: global: f18=0x00000000
34000000: global: f19=0x00000000
34000000: global: f20=0x00000000
34000000: global: f21=0x00000000
34000000: global: f22=0x00000000
34000000: global: f23=0x00000000
34000000: global: f24=0x00000000
34000000: global: f25=0x00000000
34000000: global: f26=0x00000000
34000000: global: f27=0x00000000
34000000: global: f28=0x00000000
34000000: global: f29=0x00000000
34000000: global: f30=0x00000000
34000000: global: f31=0x00000000
34000000: system.cpu.memory: Log4GUI: memory: 34000000: 0: 100f0: flw f1, 0(x12)
34000000: system.cpu.execute: Log4GUI: execute: 34000000: 0: 100f4: add x12, x2, x7: 0
34000000: system.cpu.decode: Log4GUI: decode: 34000000: 0: 100f8: flw f2, 0(x12)
34000000: system.cpu.fetch1: Log4GUI: fetch1: 34000000: 0: 100fc: <assembly>
35000000: system.cpu.writeback: Log4GUI: writeback: 35000000: 0: 100f0: flw f1, 0(x12)
35000000: system.cpu.writeback: REGISTERS
35000000: global: x0=0x00000000
35000000: global: x1=0x00011318
35000000: global: x2=0x00011358
35000000: global: x3=0x0001139d
35000000: global: x4=0xffffffab
35000000: global: x5=0x00000010
35000000: global: x6=0x00000000
35000000: global: x7=0x00000000
35000000: global: x8=0x00011399
35000000: global: x9=0x7f800000
35000000: global: x10=0x00000000
35000000: global: x11=0x00011398
35000000: global: x12=0x00011318
35000000: global: x13=0x00000000
35000000: global: x14=0x00000000
35000000: global: x15=0x00000000
35000000: global: x16=0x00000000
35000000: global: x17=0x00000000
35000000: global: x18=0x00000000
35000000: global: x19=0x00000000
35000000: global: x20=0x00000000
35000000: global: x21=0x00000000
35000000: global: x22=0x00000000
35000000: global: x23=0x00000000
35000000: global: x24=0x00000000
35000000: global: x25=0x00000000
35000000: global: x26=0x00000000
35000000: global: x27=0x00000000
35000000: global: x28=0x00000000
35000000: global: x29=0x00000000
35000000: global: x30=0x00000000
35000000: global: x31=0x00000000
35000000: global: f0=0x00000000
35000000: global: f1=0x40933333
35000000: global: f2=0x00000000
35000000: global: f3=0xc2aa0000
35000000: global: f4=0x00000000
35000000: global: f5=0x00000000
35000000: global: f6=0x00000000
35000000: global: f7=0x00000000
35000000: global: f8=0x00000000
35000000: global: f9=0x00000000
35000000: global: f10=0x00000000
35000000: global: f11=0x00000000
35000000: global: f12=0x00000000
35000000: global: f13=0x00000000
35000000: global: f14=0x00000000
35000000: global: f15=0x00000000
35000000: global: f16=0x00000000
35000000: global: f17=0x00000000
35000000: global: f18=0x00000000
35000000: global: f19=0x00000000
35000000: global: f20=0x00000000
35000000: global: f21=0x00000000
35000000: global: f22=0x00000000
35000000: global: f23=0x00000000
35000000: global: f24=0x00000000
35000000: global: f25=0x00000000
35000000: global: f26=0x00000000
35000000: global: f27=0x00000000
35000000: global: f28=0x00000000
35000000: global: f29=0x00000000
35000000: global: f30=0x00000000
35000000: global: f31=0x00000000
35000000: system.cpu.memory: Log4GUI: memory: 35000000: 0: 100f4: add x12, x2, x7
35000000: system.cpu.execute: Log4GUI: execute: 35000000: 0: 100f8: flw f2, 0(x12): 0
35000000: system.cpu.decode: Log4GUI: decode: 35000000: 0: 100fc: addi x6, x6, 1
35000000: system.cpu.fetch1: Log4GUI: fetch1: 35000000: 0: 10100: <assembly>
36000000: system.cpu.writeback: Log4GUI: writeback: 36000000: 0: 100f4: add x12, x2, x7
36000000: system.cpu.writeback: REGISTERS
36000000: global: x0=0x00000000
36000000: global: x1=0x00011318
36000000: global: x2=0x00011358
36000000: global: x3=0x0001139d
36000000: global: x4=0xffffffab
36000000: global: x5=0x00000010
36000000: global: x6=0x00000000
36000000: global: x7=0x00000000
36000000: global: x8=0x00011399
36000000: global: x9=0x7f800000
36000000: global: x10=0x00000000
36000000: global: x11=0x00011398
36000000: global: x12=0x00011358
36000000: global: x13=0x00000000
36000000: global: x14=0x00000000
36000000: global: x15=0x00000000
36000000: global: x16=0x00000000
36000000: global: x17=0x00000000
36000000: global: x18=0x00000000
36000000: global: x19=0x00000000
36000000: global: x20=0x00000000
36000000: global: x21=0x00000000
36000000: global: x22=0x00000000
36000000: global: x23=0x00000000
36000000: global: x24=0x00000000
36000000: global: x25=0x00000000
36000000: global: x26=0x00000000
36000000: global: x27=0x00000000
36000000: global: x28=0x00000000
36000000: global: x29=0x00000000
36000000: global: x30=0x00000000
36000000: global: x31=0x00000000
36000000: global: f0=0x00000000
36000000: global: f1=0x40933333
36000000: global: f2=0x00000000
36000000: global: f3=0xc2aa0000
36000000: global: f4=0x00000000
36000000: global: f5=0x00000000
36000000: global: f6=0x00000000
36000000: global: f7=0x00000000
36000000: global: f8=0x00000000
36000000: global: f9=0x00000000
36000000: global: f10=0x00000000
36000000: global: f11=0x00000000
36000000: global: f12=0x00000000
36000000: global: f13=0x00000000
36000000: global: f14=0x00000000
36000000: global: f15=0x00000000
36000000: global: f16=0x00000000
36000000: global: f17=0x00000000
36000000: global: f18=0x00000000
36000000: global: f19=0x00000000
36000000: global: f20=0x00000000
36000000: global: f21=0x00000000
36000000: global: f22=0x00000000
36000000: global: f23=0x00000000
36000000: global: f24=0x00000000
36000000: global: f25=0x00000000
36000000: global: f26=0x00000000
36000000: global: f27=0x00000000
36000000: global: f28=0x00000000
36000000: global: f29=0x00000000
36000000: global: f30=0x00000000
36000000: global: f31=0x00000000
36000000: system.cpu.memory: Log4GUI: memory: 36000000: 0: 100f8: flw f2, 0(x12)
36000000: system.cpu.execute: Log4GUI: execute: 36000000: 0: 100fc: addi x6, x6, 1: 0
36000000: system.cpu.decode: Log4GUI: decode: 36000000: 0: 10100: slli x7, x6, 2
36000000: system.cpu.fetch1: Log4GUI: fetch1: 36000000: 0: 10104: <assembly>
37000000: system.cpu.writeback: Log4GUI: writeback: 37000000: 0: 100f8: flw f2, 0(x12)
37000000: system.cpu.writeback: REGISTERS
37000000: global: x0=0x00000000
37000000: global: x1=0x00011318
37000000: global: x2=0x00011358
37000000: global: x3=0x0001139d
37000000: global: x4=0xffffffab
37000000: global: x5=0x00000010
37000000: global: x6=0x00000000
37000000: global: x7=0x00000000
37000000: global: x8=0x00011399
37000000: global: x9=0x7f800000
37000000: global: x10=0x00000000
37000000: global: x11=0x00011398
37000000: global: x12=0x00011358
37000000: global: x13=0x00000000
37000000: global: x14=0x00000000
37000000: global: x15=0x00000000
37000000: global: x16=0x00000000
37000000: global: x17=0x00000000
37000000: global: x18=0x00000000
37000000: global: x19=0x00000000
37000000: global: x20=0x00000000
37000000: global: x21=0x00000000
37000000: global: x22=0x00000000
37000000: global: x23=0x00000000
37000000: global: x24=0x00000000
37000000: global: x25=0x00000000
37000000: global: x26=0x00000000
37000000: global: x27=0x00000000
37000000: global: x28=0x00000000
37000000: global: x29=0x00000000
37000000: global: x30=0x00000000
37000000: global: x31=0x00000000
37000000: global: f0=0x00000000
37000000: global: f1=0x40933333
37000000: global: f2=0x4019999a
37000000: global: f3=0xc2aa0000
37000000: global: f4=0x00000000
37000000: global: f5=0x00000000
37000000: global: f6=0x00000000
37000000: global: f7=0x00000000
37000000: global: f8=0x00000000
37000000: global: f9=0x00000000
37000000: global: f10=0x00000000
37000000: global: f11=0x00000000
37000000: global: f12=0x00000000
37000000: global: f13=0x00000000
37000000: global: f14=0x00000000
37000000: global: f15=0x00000000
37000000: global: f16=0x00000000
37000000: global: f17=0x00000000
37000000: global: f18=0x00000000
37000000: global: f19=0x00000000
37000000: global: f20=0x00000000
37000000: global: f21=0x00000000
37000000: global: f22=0x00000000
37000000: global: f23=0x00000000
37000000: global: f24=0x00000000
37000000: global: f25=0x00000000
37000000: global: f26=0x00000000
37000000: global: f27=0x00000000
37000000: global: f28=0x00000000
37000000: global: f29=0x00000000
37000000: global: f30=0x00000000
37000000: global: f31=0x00000000
37000000: system.cpu.memory: Log4GUI: memory: 37000000: 0: 100fc: addi x6, x6, 1
37000000: system.cpu.execute: Log4GUI: execute: 37000000: 0: 10100: slli x7, x6, 2: 0
37000000: system.cpu.decode: Log4GUI: decode: 37000000: 0: 10104: add x12, x1, x7
37000000: system.cpu.fetch1: Log4GUI: fetch1: 37000000: 0: 10108: <assembly>
38000000: system.cpu.writeback: Log4GUI: writeback: 38000000: 0: 100fc: addi x6, x6, 1
38000000: system.cpu.writeback: REGISTERS
38000000: global: x0=0x00000000
38000000: global: x1=0x00011318
38000000: global: x2=0x00011358
38000000: global: x3=0x0001139d
38000000: global: x4=0xffffffab
38000000: global: x5=0x00000010
38000000: global: x6=0x00000001
38000000: global: x7=0x00000000
38000000: global: x8=0x00011399
38000000: global: x9=0x7f800000
38000000: global: x10=0x00000000
38000000: global: x11=0x00011398
38000000: global: x12=0x00011358
38000000: global: x13=0x00000000
38000000: global: x14=0x00000000
38000000: global: x15=0x00000000
38000000: global: x16=0x00000000
38000000: global: x17=0x00000000
38000000: global: x18=0x00000000
38000000: global: x19=0x00000000
38000000: global: x20=0x00000000
38000000: global: x21=0x00000000
38000000: global: x22=0x00000000
38000000: global: x23=0x00000000
38000000: global: x24=0x00000000
38000000: global: x25=0x00000000
38000000: global: x26=0x00000000
38000000: global: x27=0x00000000
38000000: global: x28=0x00000000
38000000: global: x29=0x00000000
38000000: global: x30=0x00000000
38000000: global: x31=0x00000000
38000000: global: f0=0x00000000
38000000: global: f1=0x40933333
38000000: global: f2=0x4019999a
38000000: global: f3=0xc2aa0000
38000000: global: f4=0x00000000
38000000: global: f5=0x00000000
38000000: global: f6=0x00000000
38000000: global: f7=0x00000000
38000000: global: f8=0x00000000
38000000: global: f9=0x00000000
38000000: global: f10=0x00000000
38000000: global: f11=0x00000000
38000000: global: f12=0x00000000
38000000: global: f13=0x00000000
38000000: global: f14=0x00000000
38000000: global: f15=0x00000000
38000000: global: f16=0x00000000
38000000: global: f17=0x00000000
38000000: global: f18=0x00000000
38000000: global: f19=0x00000000
38000000: global: f20=0x00000000
38000000: global: f21=0x00000000
38000000: global: f22=0x00000000
38000000: global: f23=0x00000000
38000000: global: f24=0x00000000
38000000: global: f25=0x00000000
38000000: global: f26=0x00000000
38000000: global: f27=0x00000000
38000000: global: f28=0x00000000
38000000: global: f29=0x00000000
38000000: global: f30=0x00000000
38000000: global: f31=0x00000000
38000000: system.cpu.memory: Log4GUI: memory: 38000000: 0: 10100: slli x7, x6, 2
38000000: system.cpu.execute: Log4GUI: execute: 38000000: 0: 10104: add x12, x1, x7: 0
38000000: system.cpu.decode: Log4GUI: decode: 38000000: 0: 10108: flw f6, 0(x12)
38000000: system.cpu.fetch1: Log4GUI: fetch1: 38000000: 0: 1010c: <assembly>
39000000: system.cpu.writeback: Log4GUI: writeback: 39000000: 0: 10100: slli x7, x6, 2
39000000: system.cpu.writeback: REGISTERS
39000000: global: x0=0x00000000
39000000: global: x1=0x00011318
39000000: global: x2=0x00011358
39000000: global: x3=0x0001139d
39000000: global: x4=0xffffffab
39000000: global: x5=0x00000010
39000000: global: x6=0x00000001
39000000: global: x7=0x00000004
39000000: global: x8=0x00011399
39000000: global: x9=0x7f800000
39000000: global: x10=0x00000000
39000000: global: x11=0x00011398
39000000: global: x12=0x00011358
39000000: global: x13=0x00000000
39000000: global: x14=0x00000000
39000000: global: x15=0x00000000
39000000: global: x16=0x00000000
39000000: global: x17=0x00000000
39000000: global: x18=0x00000000
39000000: global: x19=0x00000000
39000000: global: x20=0x00000000
39000000: global: x21=0x00000000
39000000: global: x22=0x00000000
39000000: global: x23=0x00000000
39000000: global: x24=0x00000000
39000000: global: x25=0x00000000
39000000: global: x26=0x00000000
39000000: global: x27=0x00000000
39000000: global: x28=0x00000000
39000000: global: x29=0x00000000
39000000: global: x30=0x00000000
39000000: global: x31=0x00000000
39000000: global: f0=0x00000000
39000000: global: f1=0x40933333
39000000: global: f2=0x4019999a
39000000: global: f3=0xc2aa0000
39000000: global: f4=0x00000000
39000000: global: f5=0x00000000
39000000: global: f6=0x00000000
39000000: global: f7=0x00000000
39000000: global: f8=0x00000000
39000000: global: f9=0x00000000
39000000: global: f10=0x00000000
39000000: global: f11=0x00000000
39000000: global: f12=0x00000000
39000000: global: f13=0x00000000
39000000: global: f14=0x00000000
39000000: global: f15=0x00000000
39000000: global: f16=0x00000000
39000000: global: f17=0x00000000
39000000: global: f18=0x00000000
39000000: global: f19=0x00000000
39000000: global: f20=0x00000000
39000000: global: f21=0x00000000
39000000: global: f22=0x00000000
39000000: global: f23=0x00000000
39000000: global: f24=0x00000000
39000000: global: f25=0x00000000
39000000: global: f26=0x00000000
39000000: global: f27=0x00000000
39000000: global: f28=0x00000000
39000000: global: f29=0x00000000
39000000: global: f30=0x00000000
39000000: global: f31=0x00000000
39000000: system.cpu.memory: Log4GUI: memory: 39000000: 0: 10104: add x12, x1, x7
39000000: system.cpu.execute: Log4GUI: execute: 39000000: 0: 10108: flw f6, 0(x12): 0
39000000: system.cpu.decode: Log4GUI: decode: 39000000: 0: 1010c: add x12, x2, x7
39000000: system.cpu.fetch1: Log4GUI: fetch1: 39000000: 0: 10110: <assembly>
40000000: system.cpu.writeback: Log4GUI: writeback: 40000000: 0: 10104: add x12, x1, x7
40000000: system.cpu.writeback: REGISTERS
40000000: global: x0=0x00000000
40000000: global: x1=0x00011318
40000000: global: x2=0x00011358
40000000: global: x3=0x0001139d
40000000: global: x4=0xffffffab
40000000: global: x5=0x00000010
40000000: global: x6=0x00000001
40000000: global: x7=0x00000004
40000000: global: x8=0x00011399
40000000: global: x9=0x7f800000
40000000: global: x10=0x00000000
40000000: global: x11=0x00011398
40000000: global: x12=0x0001131c
40000000: global: x13=0x00000000
40000000: global: x14=0x00000000
40000000: global: x15=0x00000000
40000000: global: x16=0x00000000
40000000: global: x17=0x00000000
40000000: global: x18=0x00000000
40000000: global: x19=0x00000000
40000000: global: x20=0x00000000
40000000: global: x21=0x00000000
40000000: global: x22=0x00000000
40000000: global: x23=0x00000000
40000000: global: x24=0x00000000
40000000: global: x25=0x00000000
40000000: global: x26=0x00000000
40000000: global: x27=0x00000000
40000000: global: x28=0x00000000
40000000: global: x29=0x00000000
40000000: global: x30=0x00000000
40000000: global: x31=0x00000000
40000000: global: f0=0x00000000
40000000: global: f1=0x40933333
40000000: global: f2=0x4019999a
40000000: global: f3=0xc2aa0000
40000000: global: f4=0x00000000
40000000: global: f5=0x00000000
40000000: global: f6=0x00000000
40000000: global: f7=0x00000000
40000000: global: f8=0x00000000
40000000: global: f9=0x00000000
40000000: global: f10=0x00000000
40000000: global: f11=0x00000000
40000000: global: f12=0x00000000
40000000: global: f13=0x00000000
40000000: global: f14=0x00000000
40000000: global: f15=0x00000000
40000000: global: f16=0x00000000
40000000: global: f17=0x00000000
40000000: global: f18=0x00000000
40000000: global: f19=0x00000000
40000000: global: f20=0x00000000
40000000: global: f21=0x00000000
40000000: global: f22=0x00000000
40000000: global: f23=0x00000000
40000000: global: f24=0x00000000
40000000: global: f25=0x00000000
40000000: global: f26=0x00000000
40000000: global: f27=0x00000000
40000000: global: f28=0x00000000
40000000: global: f29=0x00000000
40000000: global: f30=0x00000000
40000000: global: f31=0x00000000
40000000: system.cpu.memory: Log4GUI: memory: 40000000: 0: 10108: flw f6, 0(x12)
40000000: system.cpu.execute: Log4GUI: execute: 40000000: 0: 1010c: add x12, x2, x7: 0
40000000: system.cpu.decode: Log4GUI: decode: 40000000: 0: 10110: flw f7, 0(x12)
40000000: system.cpu.fetch1: Log4GUI: fetch1: 40000000: 0: 10114: <assembly>
41000000: system.cpu.writeback: Log4GUI: writeback: 41000000: 0: 10108: flw f6, 0(x12)
41000000: system.cpu.writeback: REGISTERS
41000000: global: x0=0x00000000
41000000: global: x1=0x00011318
41000000: global: x2=0x00011358
41000000: global: x3=0x0001139d
41000000: global: x4=0xffffffab
41000000: global: x5=0x00000010
41000000: global: x6=0x00000001
41000000: global: x7=0x00000004
41000000: global: x8=0x00011399
41000000: global: x9=0x7f800000
41000000: global: x10=0x00000000
41000000: global: x11=0x00011398
41000000: global: x12=0x0001131c
41000000: global: x13=0x00000000
41000000: global: x14=0x00000000
41000000: global: x15=0x00000000
41000000: global: x16=0x00000000
41000000: global: x17=0x00000000
41000000: global: x18=0x00000000
41000000: global: x19=0x00000000
41000000: global: x20=0x00000000
41000000: global: x21=0x00000000
41000000: global: x22=0x00000000
41000000: global: x23=0x00000000
41000000: global: x24=0x00000000
41000000: global: x25=0x00000000
41000000: global: x26=0x00000000
41000000: global: x27=0x00000000
41000000: global: x28=0x00000000
41000000: global: x29=0x00000000
41000000: global: x30=0x00000000
41000000: global: x31=0x00000000
41000000: global: f0=0x00000000
41000000: global: f1=0x40933333
41000000: global: f2=0x4019999a
41000000: global: f3=0xc2aa0000
41000000: global: f4=0x00000000
41000000: global: f5=0x00000000
41000000: global: f6=0x3f8ccccd
41000000: global: f7=0x00000000
41000000: global: f8=0x00000000
41000000: global: f9=0x00000000
41000000: global: f10=0x00000000
41000000: global: f11=0x00000000
41000000: global: f12=0x00000000
41000000: global: f13=0x00000000
41000000: global: f14=0x00000000
41000000: global: f15=0x00000000
41000000: global: f16=0x00000000
41000000: global: f17=0x00000000
41000000: global: f18=0x00000000
41000000: global: f19=0x00000000
41000000: global: f20=0x00000000
41000000: global: f21=0x00000000
41000000: global: f22=0x00000000
41000000: global: f23=0x00000000
41000000: global: f24=0x00000000
41000000: global: f25=0x00000000
41000000: global: f26=0x00000000
41000000: global: f27=0x00000000
41000000: global: f28=0x00000000
41000000: global: f29=0x00000000
41000000: global: f30=0x00000000
41000000: global: f31=0x00000000
41000000: system.cpu.memory: Log4GUI: memory: 41000000: 0: 1010c: add x12, x2, x7
41000000: system.cpu.execute: Log4GUI: execute: 41000000: 0: 10110: flw f7, 0(x12): 0
41000000: system.cpu.decode: Log4GUI: decode: 41000000: 0: 10114: addi x6, x6, 1
41000000: system.cpu.fetch1: Log4GUI: fetch1: 41000000: 0: 10118: <assembly>
42000000: system.cpu.writeback: Log4GUI: writeback: 42000000: 0: 1010c: add x12, x2, x7
42000000: system.cpu.writeback: REGISTERS
42000000: global: x0=0x00000000
42000000: global: x1=0x00011318
42000000: global: x2=0x00011358
42000000: global: x3=0x0001139d
42000000: global: x4=0xffffffab
42000000: global: x5=0x00000010
42000000: global: x6=0x00000001
42000000: global: x7=0x00000004
42000000: global: x8=0x00011399
42000000: global: x9=0x7f800000
42000000: global: x10=0x00000000
42000000: global: x11=0x00011398
42000000: global: x12=0x0001135c
42000000: global: x13=0x00000000
42000000: global: x14=0x00000000
42000000: global: x15=0x00000000
42000000: global: x16=0x00000000
42000000: global: x17=0x00000000
42000000: global: x18=0x00000000
42000000: global: x19=0x00000000
[...]
216000000: system.cpu.fetch1: Log4GUI: fetch1: 216000000: 1: 102f4: <assembly>
217000000: system.cpu.execute: Log4GUI: execute: 217000000: 0: 102ec: fadd_s f4, f3, f4: 3
217000000: system.cpu.decode: Log4GUI: decode: 217000000: 1: 102f0: fmv_x_w x10, f4
217000000: system.cpu.fetch1: Log4GUI: fetch1: 217000000: 1: 102f4: <assembly>
218000000: system.cpu.memory: Log4GUI: memory: 218000000: 0: 102ec: fadd_s f4, f3, f4
218000000: system.cpu.execute: Log4GUI: execute: 218000000: 0: 102f0: fmv_x_w x10, f4: 3
218000000: system.cpu.decode: Log4GUI: decode: 218000000: 0: 102f4: fsw f4, 0(x11)
218000000: system.cpu.fetch1: Log4GUI: fetch1: 218000000: 0: 102f8: <assembly>
219000000: system.cpu.writeback: Log4GUI: writeback: 219000000: 0: 102ec: fadd_s f4, f3, f4
219000000: system.cpu.writeback: REGISTERS
219000000: global: x0=0x00000000
219000000: global: x1=0x00011318
219000000: global: x2=0x00011358
219000000: global: x3=0x0001139d
219000000: global: x4=0xffffffab
219000000: global: x5=0x00000010
219000000: global: x6=0x00000010
219000000: global: x7=0x0000003c
219000000: global: x8=0x00011399
219000000: global: x9=0x7f800000
219000000: global: x10=0x00000000
219000000: global: x11=0x00011398
219000000: global: x12=0x00011394
219000000: global: x13=0x00000000
219000000: global: x14=0x00000000
219000000: global: x15=0x00000000
219000000: global: x16=0x00000000
219000000: global: x17=0x00000000
219000000: global: x18=0x00000000
219000000: global: x19=0x00000000
219000000: global: x20=0x00000000
219000000: global: x21=0x00000000
219000000: global: x22=0x00000000
219000000: global: x23=0x00000000
219000000: global: x24=0x00000000
219000000: global: x25=0x00000000
219000000: global: x26=0x00000000
219000000: global: x27=0x00000000
219000000: global: x28=0x00000000
219000000: global: x29=0x00000000
219000000: global: x30=0x00000000
219000000: global: x31=0x00000000
219000000: global: f0=0x00000000
219000000: global: f1=0x4101999a
219000000: global: f2=0x40b00000
219000000: global: f3=0xc2aa0000
219000000: global: f4=0xc221cccc
219000000: global: f5=0x43bdf47b
219000000: global: f6=0x40e9999a
219000000: global: f7=0x40933333
219000000: global: f8=0x420651ec
219000000: global: f9=0x4079999a
219000000: global: f10=0x40966666
219000000: global: f11=0x4192a3d7
219000000: global: f12=0x4079999a
219000000: global: f13=0x4119999a
219000000: global: f14=0x4215c290
219000000: global: f15=0x4079999a
219000000: global: f16=0x40133333
219000000: global: f17=0x410f851f
219000000: global: f18=0x40b00000
219000000: global: f19=0x3fcccccd
219000000: global: f20=0x410ccccd
219000000: global: f21=0x4101999a
219000000: global: f22=0x3f800000
219000000: global: f23=0x4101999a
219000000: global: f24=0x3ff33333
219000000: global: f25=0x40a33333
219000000: global: f26=0x411b0a3d
219000000: global: f27=0x40f00000
219000000: global: f28=0x404ccccd
219000000: global: f29=0x41c00000
219000000: global: f30=0x00000000
219000000: global: f31=0x00000000
219000000: system.cpu.execute: Log4GUI: execute: 219000000: 0: 102f4: fsw f4, 0(x11): 0
219000000: system.cpu.execute: Log4GUI: execute: 219000000: 0: 102f0: fmv_x_w x10, f4: 3
219000000: system.cpu.decode: Log4GUI: decode: 219000000: 0: 102f8: and x10, x10, x9
219000000: system.cpu.fetch1: Log4GUI: fetch1: 219000000: 0: 102fc: <assembly>
220000000: system.cpu.memory: Log4GUI: memory: 220000000: 0: 102f4: fsw f4, 0(x11)
220000000: system.cpu.execute: Log4GUI: execute: 220000000: 0: 102f0: fmv_x_w x10, f4: 3
220000000: system.cpu.decode: Log4GUI: decode: 220000000: 1: 102f8: and x10, x10, x9
220000000: system.cpu.fetch1: Log4GUI: fetch1: 220000000: 1: 102fc: <assembly>
221000000: system.cpu.writeback: Log4GUI: writeback: 221000000: 0: 102f4: fsw f4, 0(x11)
221000000: system.cpu.writeback: REGISTERS
221000000: global: x0=0x00000000
221000000: global: x1=0x00011318
221000000: global: x2=0x00011358
221000000: global: x3=0x0001139d
221000000: global: x4=0xffffffab
221000000: global: x5=0x00000010
221000000: global: x6=0x00000010
221000000: global: x7=0x0000003c
221000000: global: x8=0x00011399
221000000: global: x9=0x7f800000
221000000: global: x10=0x00000000
221000000: global: x11=0x00011398
221000000: global: x12=0x00011394
221000000: global: x13=0x00000000
221000000: global: x14=0x00000000
221000000: global: x15=0x00000000
221000000: global: x16=0x00000000
221000000: global: x17=0x00000000
221000000: global: x18=0x00000000
221000000: global: x19=0x00000000
221000000: global: x20=0x00000000
221000000: global: x21=0x00000000
221000000: global: x22=0x00000000
221000000: global: x23=0x00000000
221000000: global: x24=0x00000000
221000000: global: x25=0x00000000
221000000: global: x26=0x00000000
221000000: global: x27=0x00000000
221000000: global: x28=0x00000000
221000000: global: x29=0x00000000
221000000: global: x30=0x00000000
221000000: global: x31=0x00000000
221000000: global: f0=0x00000000
221000000: global: f1=0x4101999a
221000000: global: f2=0x40b00000
221000000: global: f3=0xc2aa0000
221000000: global: f4=0xc221cccc
221000000: global: f5=0x43bdf47b
221000000: global: f6=0x40e9999a
221000000: global: f7=0x40933333
221000000: global: f8=0x420651ec
221000000: global: f9=0x4079999a
221000000: global: f10=0x40966666
221000000: global: f11=0x4192a3d7
221000000: global: f12=0x4079999a
221000000: global: f13=0x4119999a
221000000: global: f14=0x4215c290
221000000: global: f15=0x4079999a
221000000: global: f16=0x40133333
221000000: global: f17=0x410f851f
221000000: global: f18=0x40b00000
221000000: global: f19=0x3fcccccd
221000000: global: f20=0x410ccccd
221000000: global: f21=0x4101999a
221000000: global: f22=0x3f800000
221000000: global: f23=0x4101999a
221000000: global: f24=0x3ff33333
221000000: global: f25=0x40a33333
221000000: global: f26=0x411b0a3d
221000000: global: f27=0x40f00000
221000000: global: f28=0x404ccccd
221000000: global: f29=0x41c00000
221000000: global: f30=0x00000000
221000000: global: f31=0x00000000
221000000: system.cpu.execute: Log4GUI: execute: 221000000: 0: 102f0: fmv_x_w x10, f4: 3
221000000: system.cpu.decode: Log4GUI: decode: 221000000: 1: 102f8: and x10, x10, x9
221000000: system.cpu.fetch1: Log4GUI: fetch1: 221000000: 1: 102fc: <assembly>
222000000: system.cpu.memory: Log4GUI: memory: 222000000: 0: 102f0: fmv_x_w x10, f4
222000000: system.cpu.execute: Log4GUI: execute: 222000000: 0: 102f8: and x10, x10, x9: 0
222000000: system.cpu.decode: Log4GUI: decode: 222000000: 0: 102fc: beq x10, x9, 8
222000000: system.cpu.fetch1: Log4GUI: fetch1: 222000000: 0: 10300: <assembly>
223000000: system.cpu.writeback: Log4GUI: writeback: 223000000: 0: 102f0: fmv_x_w x10, f4
223000000: system.cpu.writeback: REGISTERS
223000000: global: x0=0x00000000
223000000: global: x1=0x00011318
223000000: global: x2=0x00011358
223000000: global: x3=0x0001139d
223000000: global: x4=0xffffffab
223000000: global: x5=0x00000010
223000000: global: x6=0x00000010
223000000: global: x7=0x0000003c
223000000: global: x8=0x00011399
223000000: global: x9=0x7f800000
223000000: global: x10=0xc221cccc
223000000: global: x11=0x00011398
223000000: global: x12=0x00011394
223000000: global: x13=0x00000000
223000000: global: x14=0x00000000
223000000: global: x15=0x00000000
223000000: global: x16=0x00000000
223000000: global: x17=0x00000000
223000000: global: x18=0x00000000
223000000: global: x19=0x00000000
223000000: global: x20=0x00000000
223000000: global: x21=0x00000000
223000000: global: x22=0x00000000
223000000: global: x23=0x00000000
223000000: global: x24=0x00000000
223000000: global: x25=0x00000000
223000000: global: x26=0x00000000
223000000: global: x27=0x00000000
223000000: global: x28=0x00000000
223000000: global: x29=0x00000000
223000000: global: x30=0x00000000
223000000: global: x31=0x00000000
223000000: global: f0=0x00000000
223000000: global: f1=0x4101999a
223000000: global: f2=0x40b00000
223000000: global: f3=0xc2aa0000
223000000: global: f4=0xc221cccc
223000000: global: f5=0x43bdf47b
223000000: global: f6=0x40e9999a
223000000: global: f7=0x40933333
223000000: global: f8=0x420651ec
223000000: global: f9=0x4079999a
223000000: global: f10=0x40966666
223000000: global: f11=0x4192a3d7
223000000: global: f12=0x4079999a
223000000: global: f13=0x4119999a
223000000: global: f14=0x4215c290
223000000: global: f15=0x4079999a
223000000: global: f16=0x40133333
223000000: global: f17=0x410f851f
223000000: global: f18=0x40b00000
223000000: global: f19=0x3fcccccd
223000000: global: f20=0x410ccccd
223000000: global: f21=0x4101999a
223000000: global: f22=0x3f800000
223000000: global: f23=0x4101999a
223000000: global: f24=0x3ff33333
223000000: global: f25=0x40a33333
223000000: global: f26=0x411b0a3d
223000000: global: f27=0x40f00000
223000000: global: f28=0x404ccccd
223000000: global: f29=0x41c00000
223000000: global: f30=0x00000000
223000000: global: f31=0x00000000
223000000: system.cpu.memory: Log4GUI: memory: 223000000: 0: 102f8: and x10, x10, x9
223000000: system.cpu.decode: Log4GUI: decode: 223000000: 1: 102fc: beq x10, x9, 8
223000000: system.cpu.fetch1: Log4GUI: fetch1: 223000000: 1: 10300: <assembly>
224000000: system.cpu.writeback: Log4GUI: writeback: 224000000: 0: 102f8: and x10, x10, x9
224000000: system.cpu.writeback: REGISTERS
224000000: global: x0=0x00000000
224000000: global: x1=0x00011318
224000000: global: x2=0x00011358
224000000: global: x3=0x0001139d
224000000: global: x4=0xffffffab
224000000: global: x5=0x00000010
224000000: global: x6=0x00000010
224000000: global: x7=0x0000003c
224000000: global: x8=0x00011399
224000000: global: x9=0x7f800000
224000000: global: x10=0x42000000
224000000: global: x11=0x00011398
224000000: global: x12=0x00011394
224000000: global: x13=0x00000000
224000000: global: x14=0x00000000
224000000: global: x15=0x00000000
224000000: global: x16=0x00000000
224000000: global: x17=0x00000000
224000000: global: x18=0x00000000
224000000: global: x19=0x00000000
224000000: global: x20=0x00000000
224000000: global: x21=0x00000000
224000000: global: x22=0x00000000
224000000: global: x23=0x00000000
224000000: global: x24=0x00000000
224000000: global: x25=0x00000000
224000000: global: x26=0x00000000
224000000: global: x27=0x00000000
224000000: global: x28=0x00000000
224000000: global: x29=0x00000000
224000000: global: x30=0x00000000
224000000: global: x31=0x00000000
224000000: global: f0=0x00000000
224000000: global: f1=0x4101999a
224000000: global: f2=0x40b00000
224000000: global: f3=0xc2aa0000
224000000: global: f4=0xc221cccc
224000000: global: f5=0x43bdf47b
224000000: global: f6=0x40e9999a
224000000: global: f7=0x40933333
224000000: global: f8=0x420651ec
224000000: global: f9=0x4079999a
224000000: global: f10=0x40966666
224000000: global: f11=0x4192a3d7
224000000: global: f12=0x4079999a
224000000: global: f13=0x4119999a
224000000: global: f14=0x4215c290
224000000: global: f15=0x4079999a
224000000: global: f16=0x40133333
224000000: global: f17=0x410f851f
224000000: global: f18=0x40b00000
224000000: global: f19=0x3fcccccd
224000000: global: f20=0x410ccccd
224000000: global: f21=0x4101999a
224000000: global: f22=0x3f800000
224000000: global: f23=0x4101999a
224000000: global: f24=0x3ff33333
224000000: global: f25=0x40a33333
224000000: global: f26=0x411b0a3d
224000000: global: f27=0x40f00000
224000000: global: f28=0x404ccccd
224000000: global: f29=0x41c00000
224000000: global: f30=0x00000000
224000000: global: f31=0x00000000
224000000: system.cpu.execute: Log4GUI: execute: 224000000: 0: 102fc: beq x10, x9, 8: 0
224000000: system.cpu.decode: Log4GUI: decode: 224000000: 0: 10300: jal x0, 12
224000000: system.cpu.fetch1: Log4GUI: fetch1: 224000000: 0: 10304: <assembly>
225000000: system.cpu.memory: Log4GUI: memory: 225000000: 0: 102fc: beq x10, x9, 8
225000000: system.cpu.execute: Log4GUI: execute: 225000000: 0: 10300: jal x0, 12: 0
225000000: system.cpu.fetch1: Log4GUI: fetch1: 225000000: 0: 1030c: <assembly>
226000000: system.cpu.writeback: Log4GUI: writeback: 226000000: 0: 102fc: beq x10, x9, 8
226000000: system.cpu.writeback: REGISTERS
226000000: global: x0=0x00000000
226000000: global: x1=0x00011318
226000000: global: x2=0x00011358
226000000: global: x3=0x0001139d
226000000: global: x4=0xffffffab
226000000: global: x5=0x00000010
226000000: global: x6=0x00000010
226000000: global: x7=0x0000003c
226000000: global: x8=0x00011399
226000000: global: x9=0x7f800000
226000000: global: x10=0x42000000
226000000: global: x11=0x00011398
226000000: global: x12=0x00011394
226000000: global: x13=0x00000000
226000000: global: x14=0x00000000
226000000: global: x15=0x00000000
226000000: global: x16=0x00000000
226000000: global: x17=0x00000000
226000000: global: x18=0x00000000
226000000: global: x19=0x00000000
226000000: global: x20=0x00000000
226000000: global: x21=0x00000000
226000000: global: x22=0x00000000
226000000: global: x23=0x00000000
226000000: global: x24=0x00000000
226000000: global: x25=0x00000000
226000000: global: x26=0x00000000
226000000: global: x27=0x00000000
226000000: global: x28=0x00000000
226000000: global: x29=0x00000000
226000000: global: x30=0x00000000
226000000: global: x31=0x00000000
226000000: global: f0=0x00000000
226000000: global: f1=0x4101999a
226000000: global: f2=0x40b00000
226000000: global: f3=0xc2aa0000
226000000: global: f4=0xc221cccc
226000000: global: f5=0x43bdf47b
226000000: global: f6=0x40e9999a
226000000: global: f7=0x40933333
226000000: global: f8=0x420651ec
226000000: global: f9=0x4079999a
226000000: global: f10=0x40966666
226000000: global: f11=0x4192a3d7
226000000: global: f12=0x4079999a
226000000: global: f13=0x4119999a
226000000: global: f14=0x4215c290
226000000: global: f15=0x4079999a
226000000: global: f16=0x40133333
226000000: global: f17=0x410f851f
226000000: global: f18=0x40b00000
226000000: global: f19=0x3fcccccd
226000000: global: f20=0x410ccccd
226000000: global: f21=0x4101999a
226000000: global: f22=0x3f800000
226000000: global: f23=0x4101999a
226000000: global: f24=0x3ff33333
226000000: global: f25=0x40a33333
226000000: global: f26=0x411b0a3d
226000000: global: f27=0x40f00000
226000000: global: f28=0x404ccccd
226000000: global: f29=0x41c00000
226000000: global: f30=0x00000000
226000000: global: f31=0x00000000
226000000: system.cpu.memory: Log4GUI: memory: 226000000: 0: 10300: jal x0, 12
226000000: system.cpu.decode: Log4GUI: decode: 226000000: 0: 1030c: addi x10, x0, 0
226000000: system.cpu.fetch1: Log4GUI: fetch1: 226000000: 0: 10310: <assembly>
227000000: system.cpu.writeback: Log4GUI: writeback: 227000000: 0: 10300: jal x0, 12
227000000: system.cpu.writeback: REGISTERS
227000000: global: x0=0x00000000
227000000: global: x1=0x00011318
227000000: global: x2=0x00011358
227000000: global: x3=0x0001139d
227000000: global: x4=0xffffffab
227000000: global: x5=0x00000010
227000000: global: x6=0x00000010
227000000: global: x7=0x0000003c
227000000: global: x8=0x00011399
227000000: global: x9=0x7f800000
227000000: global: x10=0x42000000
227000000: global: x11=0x00011398
227000000: global: x12=0x00011394
227000000: global: x13=0x00000000
227000000: global: x14=0x00000000
227000000: global: x15=0x00000000
227000000: global: x16=0x00000000
227000000: global: x17=0x00000000
227000000: global: x18=0x00000000
227000000: global: x19=0x00000000
227000000: global: x20=0x00000000
227000000: global: x21=0x00000000
227000000: global: x22=0x00000000
227000000: global: x23=0x00000000
227000000: global: x24=0x00000000
227000000: global: x25=0x00000000
227000000: global: x26=0x00000000
227000000: global: x27=0x00000000
227000000: global: x28=0x00000000
227000000: global: x29=0x00000000
227000000: global: x30=0x00000000
227000000: global: x31=0x00000000
227000000: global: f0=0x00000000
227000000: global: f1=0x4101999a
227000000: global: f2=0x40b00000
227000000: global: f3=0xc2aa0000
227000000: global: f4=0xc221cccc
227000000: global: f5=0x43bdf47b
227000000: global: f6=0x40e9999a
227000000: global: f7=0x40933333
227000000: global: f8=0x420651ec
227000000: global: f9=0x4079999a
227000000: global: f10=0x40966666
227000000: global: f11=0x4192a3d7
227000000: global: f12=0x4079999a
227000000: global: f13=0x4119999a
227000000: global: f14=0x4215c290
227000000: global: f15=0x4079999a
227000000: global: f16=0x40133333
227000000: global: f17=0x410f851f
227000000: global: f18=0x40b00000
227000000: global: f19=0x3fcccccd
227000000: global: f20=0x410ccccd
227000000: global: f21=0x4101999a
227000000: global: f22=0x3f800000
227000000: global: f23=0x4101999a
227000000: global: f24=0x3ff33333
227000000: global: f25=0x40a33333
227000000: global: f26=0x411b0a3d
227000000: global: f27=0x40f00000
227000000: global: f28=0x404ccccd
227000000: global: f29=0x41c00000
227000000: global: f30=0x00000000
227000000: global: f31=0x00000000
227000000: system.cpu.execute: Log4GUI: execute: 227000000: 0: 1030c: addi x10, x0, 0: 0
227000000: system.cpu.decode: Log4GUI: decode: 227000000: 0: 10310: addi x17, x0, 93
227000000: system.cpu.fetch1: Log4GUI: fetch1: 227000000: 0: 10314: <assembly>
228000000: system.cpu.memory: Log4GUI: memory: 228000000: 0: 1030c: addi x10, x0, 0
228000000: system.cpu.execute: Log4GUI: execute: 228000000: 0: 10310: addi x17, x0, 93: 0
228000000: system.cpu.decode: Log4GUI: decode: 228000000: 0: 10314: ecall
228000000: system.cpu.fetch1: Log4GUI: fetch1: 228000000: 0: 10318: <assembly>
229000000: system.cpu.writeback: Log4GUI: writeback: 229000000: 0: 1030c: addi x10, x0, 0
229000000: system.cpu.writeback: REGISTERS
229000000: global: x0=0x00000000
229000000: global: x1=0x00011318
229000000: global: x2=0x00011358
229000000: global: x3=0x0001139d
229000000: global: x4=0xffffffab
229000000: global: x5=0x00000010
229000000: global: x6=0x00000010
229000000: global: x7=0x0000003c
229000000: global: x8=0x00011399
229000000: global: x9=0x7f800000
229000000: global: x10=0x00000000
229000000: global: x11=0x00011398
229000000: global: x12=0x00011394
229000000: global: x13=0x00000000
229000000: global: x14=0x00000000
229000000: global: x15=0x00000000
229000000: global: x16=0x00000000
229000000: global: x17=0x00000000
229000000: global: x18=0x00000000
229000000: global: x19=0x00000000
229000000: global: x20=0x00000000
229000000: global: x21=0x00000000
229000000: global: x22=0x00000000
229000000: global: x23=0x00000000
229000000: global: x24=0x00000000
229000000: global: x25=0x00000000
229000000: global: x26=0x00000000
229000000: global: x27=0x00000000
229000000: global: x28=0x00000000
229000000: global: x29=0x00000000
229000000: global: x30=0x00000000
229000000: global: x31=0x00000000
229000000: global: f0=0x00000000
229000000: global: f1=0x4101999a
229000000: global: f2=0x40b00000
229000000: global: f3=0xc2aa0000
229000000: global: f4=0xc221cccc
229000000: global: f5=0x43bdf47b
229000000: global: f6=0x40e9999a
229000000: global: f7=0x40933333
229000000: global: f8=0x420651ec
229000000: global: f9=0x4079999a
229000000: global: f10=0x40966666
229000000: global: f11=0x4192a3d7
229000000: global: f12=0x4079999a
229000000: global: f13=0x4119999a
229000000: global: f14=0x4215c290
229000000: global: f15=0x4079999a
229000000: global: f16=0x40133333
229000000: global: f17=0x410f851f
229000000: global: f18=0x40b00000
229000000: global: f19=0x3fcccccd
229000000: global: f20=0x410ccccd
229000000: global: f21=0x4101999a
229000000: global: f22=0x3f800000
229000000: global: f23=0x4101999a
229000000: global: f24=0x3ff33333
229000000: global: f25=0x40a33333
229000000: global: f26=0x411b0a3d
229000000: global: f27=0x40f00000
229000000: global: f28=0x404ccccd
229000000: global: f29=0x41c00000
229000000: global: f30=0x00000000
229000000: global: f31=0x00000000
229000000: system.cpu.memory: Log4GUI: memory: 229000000: 0: 10310: addi x17, x0, 93
229000000: system.cpu.execute: Log4GUI: execute: 229000000: 0: 10314: ecall: -1
229000000: system.cpu.decode: Log4GUI: decode: 229000000: 0: 10318: c_addi4spn x8, x2, 0
229000000: system.cpu.fetch1: Log4GUI: fetch1: 229000000: 0: 1031a: <assembly>
Exiting @ tick 229000000 because exiting with last active thread context
