Global frequency set at 1000000000000 ticks per second
gem5 Simulator System.  https://www.gem5.org
gem5 is copyrighted software; use the --copyright option for details.

gem5 version 22.1.0.0
gem5 compiled Aug 27 2025 16:10:28
gem5 started Oct 30 2025 20:03:05
gem5 executing on vboxuser-VirtualBox, pid 4712
command line: /home/vboxuser/gem5/build/RISCV/gem5.opt --debug-flags=MinorGUI gem5_config.py --cpu-type MinorCPU --caches --l1d_size 8388608 --l1i_size 8388608 --cacheline_size 512 --cpu-clock 1MHz --sys-clock 10GHz -c program_1_a

**** REAL SIMULATION ****
1000000: system.cpu.fetch1: Log4GUI: fetch1: 1000000: 0: 10094: <assembly>
2000000: system.cpu.fetch1: Log4GUI: fetch1: 2000000: 1: 10094: <assembly>
3000000: system.cpu.fetch1: Log4GUI: fetch1: 3000000: 1: 10094: <assembly>
4000000: system.cpu.fetch1: Log4GUI: fetch1: 4000000: 1: 10094: <assembly>
5000000: system.cpu.decode: Log4GUI: decode: 5000000: 0: 10094: auipc x1, 1
5000000: system.cpu.fetch1: Log4GUI: fetch1: 5000000: 0: 10098: <assembly>
6000000: system.cpu.execute: Log4GUI: execute: 6000000: 0: 10094: auipc x1, 1: 0
6000000: system.cpu.decode: Log4GUI: decode: 6000000: 0: 10098: addi x1, x1, 168
6000000: system.cpu.fetch1: Log4GUI: fetch1: 6000000: 0: 1009c: <assembly>
7000000: system.cpu.memory: Log4GUI: memory: 7000000: 0: 10094: auipc x1, 1
7000000: system.cpu.execute: Log4GUI: execute: 7000000: 0: 10098: addi x1, x1, 168: 0
7000000: system.cpu.decode: Log4GUI: decode: 7000000: 0: 1009c: flw f1, 0(x1)
7000000: system.cpu.fetch1: Log4GUI: fetch1: 7000000: 0: 100a0: <assembly>
8000000: system.cpu.writeback: Log4GUI: writeback: 8000000: 0: 10094: auipc x1, 1
8000000: system.cpu.writeback: REGISTERS
8000000: global: x0=0x00000000
8000000: global: x1=0x00011094
8000000: global: x2=0x7fffff90
8000000: global: x3=0x00000000
8000000: global: x4=0x00000000
8000000: global: x5=0x00000000
8000000: global: x6=0x00000000
8000000: global: x7=0x00000000
8000000: global: x8=0x00000000
8000000: global: x9=0x00000000
8000000: global: x10=0x00000000
8000000: global: x11=0x00000000
8000000: global: x12=0x00000000
8000000: global: x13=0x00000000
8000000: global: x14=0x00000000
8000000: global: x15=0x00000000
8000000: global: x16=0x00000000
8000000: global: x17=0x00000000
8000000: global: x18=0x00000000
8000000: global: x19=0x00000000
8000000: global: x20=0x00000000
8000000: global: x21=0x00000000
8000000: global: x22=0x00000000
8000000: global: x23=0x00000000
8000000: global: x24=0x00000000
8000000: global: x25=0x00000000
8000000: global: x26=0x00000000
8000000: global: x27=0x00000000
8000000: global: x28=0x00000000
8000000: global: x29=0x00000000
8000000: global: x30=0x00000000
8000000: global: x31=0x00000000
8000000: global: f0=0x00000000
8000000: global: f1=0x00000000
8000000: global: f2=0x00000000
8000000: global: f3=0x00000000
8000000: global: f4=0x00000000
8000000: global: f5=0x00000000
8000000: global: f6=0x00000000
8000000: global: f7=0x00000000
8000000: global: f8=0x00000000
8000000: global: f9=0x00000000
8000000: global: f10=0x00000000
8000000: global: f11=0x00000000
8000000: global: f12=0x00000000
8000000: global: f13=0x00000000
8000000: global: f14=0x00000000
8000000: global: f15=0x00000000
8000000: global: f16=0x00000000
8000000: global: f17=0x00000000
8000000: global: f18=0x00000000
8000000: global: f19=0x00000000
8000000: global: f20=0x00000000
8000000: global: f21=0x00000000
8000000: global: f22=0x00000000
8000000: global: f23=0x00000000
8000000: global: f24=0x00000000
8000000: global: f25=0x00000000
8000000: global: f26=0x00000000
8000000: global: f27=0x00000000
8000000: global: f28=0x00000000
8000000: global: f29=0x00000000
8000000: global: f30=0x00000000
8000000: global: f31=0x00000000
8000000: system.cpu.memory: Log4GUI: memory: 8000000: 0: 10098: addi x1, x1, 168
8000000: system.cpu.execute: Log4GUI: execute: 8000000: 0: 1009c: flw f1, 0(x1): 0
8000000: system.cpu.decode: Log4GUI: decode: 8000000: 0: 100a0: auipc x2, 1
8000000: system.cpu.fetch1: Log4GUI: fetch1: 8000000: 0: 100a4: <assembly>
9000000: system.cpu.writeback: Log4GUI: writeback: 9000000: 0: 10098: addi x1, x1, 168
9000000: system.cpu.writeback: REGISTERS
9000000: global: x0=0x00000000
9000000: global: x1=0x0001113c
9000000: global: x2=0x7fffff90
9000000: global: x3=0x00000000
9000000: global: x4=0x00000000
9000000: global: x5=0x00000000
9000000: global: x6=0x00000000
9000000: global: x7=0x00000000
9000000: global: x8=0x00000000
9000000: global: x9=0x00000000
9000000: global: x10=0x00000000
9000000: global: x11=0x00000000
9000000: global: x12=0x00000000
9000000: global: x13=0x00000000
9000000: global: x14=0x00000000
9000000: global: x15=0x00000000
9000000: global: x16=0x00000000
9000000: global: x17=0x00000000
9000000: global: x18=0x00000000
9000000: global: x19=0x00000000
9000000: global: x20=0x00000000
9000000: global: x21=0x00000000
9000000: global: x22=0x00000000
9000000: global: x23=0x00000000
9000000: global: x24=0x00000000
9000000: global: x25=0x00000000
9000000: global: x26=0x00000000
9000000: global: x27=0x00000000
9000000: global: x28=0x00000000
9000000: global: x29=0x00000000
9000000: global: x30=0x00000000
9000000: global: x31=0x00000000
9000000: global: f0=0x00000000
9000000: global: f1=0x00000000
9000000: global: f2=0x00000000
9000000: global: f3=0x00000000
9000000: global: f4=0x00000000
9000000: global: f5=0x00000000
9000000: global: f6=0x00000000
9000000: global: f7=0x00000000
9000000: global: f8=0x00000000
9000000: global: f9=0x00000000
9000000: global: f10=0x00000000
9000000: global: f11=0x00000000
9000000: global: f12=0x00000000
9000000: global: f13=0x00000000
9000000: global: f14=0x00000000
9000000: global: f15=0x00000000
9000000: global: f16=0x00000000
9000000: global: f17=0x00000000
9000000: global: f18=0x00000000
9000000: global: f19=0x00000000
9000000: global: f20=0x00000000
9000000: global: f21=0x00000000
9000000: global: f22=0x00000000
9000000: global: f23=0x00000000
9000000: global: f24=0x00000000
9000000: global: f25=0x00000000
9000000: global: f26=0x00000000
9000000: global: f27=0x00000000
9000000: global: f28=0x00000000
9000000: global: f29=0x00000000
9000000: global: f30=0x00000000
9000000: global: f31=0x00000000
9000000: system.cpu.memory: Log4GUI: memory: 9000000: 0: 1009c: flw f1, 0(x1)
9000000: system.cpu.execute: Log4GUI: execute: 9000000: 0: 100a0: auipc x2, 1: 0
9000000: system.cpu.decode: Log4GUI: decode: 9000000: 0: 100a4: addi x2, x2, 220
9000000: system.cpu.fetch1: Log4GUI: fetch1: 9000000: 0: 100a8: <assembly>
10000000: system.cpu.memory: Log4GUI: memory: 10000000: 1: 1009c: flw f1, 0(x1)
10000000: system.cpu.execute: Log4GUI: execute: 10000000: 1: 100a0: auipc x2, 1: 0
10000000: system.cpu.decode: Log4GUI: decode: 10000000: 1: 100a4: addi x2, x2, 220
10000000: system.cpu.fetch1: Log4GUI: fetch1: 10000000: 1: 100a8: <assembly>
11000000: system.cpu.decode: Log4GUI: decode: 11000000: 1: 100a4: addi x2, x2, 220
11000000: system.cpu.fetch1: Log4GUI: fetch1: 11000000: 1: 100a8: <assembly>
12000000: system.cpu.writeback: Log4GUI: writeback: 12000000: 0: 1009c: flw f1, 0(x1)
12000000: system.cpu.writeback: REGISTERS
12000000: global: x0=0x00000000
12000000: global: x1=0x0001113c
12000000: global: x2=0x7fffff90
12000000: global: x3=0x00000000
12000000: global: x4=0x00000000
12000000: global: x5=0x00000000
12000000: global: x6=0x00000000
12000000: global: x7=0x00000000
12000000: global: x8=0x00000000
12000000: global: x9=0x00000000
12000000: global: x10=0x00000000
12000000: global: x11=0x00000000
12000000: global: x12=0x00000000
12000000: global: x13=0x00000000
12000000: global: x14=0x00000000
12000000: global: x15=0x00000000
12000000: global: x16=0x00000000
12000000: global: x17=0x00000000
12000000: global: x18=0x00000000
12000000: global: x19=0x00000000
12000000: global: x20=0x00000000
12000000: global: x21=0x00000000
12000000: global: x22=0x00000000
12000000: global: x23=0x00000000
12000000: global: x24=0x00000000
12000000: global: x25=0x00000000
12000000: global: x26=0x00000000
12000000: global: x27=0x00000000
12000000: global: x28=0x00000000
12000000: global: x29=0x00000000
12000000: global: x30=0x00000000
12000000: global: x31=0x00000000
12000000: global: f0=0x00000000
12000000: global: f1=0x40933333
12000000: global: f2=0x00000000
12000000: global: f3=0x00000000
12000000: global: f4=0x00000000
12000000: global: f5=0x00000000
12000000: global: f6=0x00000000
12000000: global: f7=0x00000000
12000000: global: f8=0x00000000
12000000: global: f9=0x00000000
12000000: global: f10=0x00000000
12000000: global: f11=0x00000000
12000000: global: f12=0x00000000
12000000: global: f13=0x00000000
12000000: global: f14=0x00000000
12000000: global: f15=0x00000000
12000000: global: f16=0x00000000
12000000: global: f17=0x00000000
12000000: global: f18=0x00000000
12000000: global: f19=0x00000000
12000000: global: f20=0x00000000
12000000: global: f21=0x00000000
12000000: global: f22=0x00000000
12000000: global: f23=0x00000000
12000000: global: f24=0x00000000
12000000: global: f25=0x00000000
12000000: global: f26=0x00000000
12000000: global: f27=0x00000000
12000000: global: f28=0x00000000
12000000: global: f29=0x00000000
12000000: global: f30=0x00000000
12000000: global: f31=0x00000000
12000000: system.cpu.memory: Log4GUI: memory: 12000000: 0: 100a0: auipc x2, 1
12000000: system.cpu.execute: Log4GUI: execute: 12000000: 0: 100a4: addi x2, x2, 220: 0
12000000: system.cpu.decode: Log4GUI: decode: 12000000: 0: 100a8: flw f1, 0(x2)
12000000: system.cpu.fetch1: Log4GUI: fetch1: 12000000: 0: 100ac: <assembly>
13000000: system.cpu.writeback: Log4GUI: writeback: 13000000: 0: 100a0: auipc x2, 1
13000000: system.cpu.writeback: REGISTERS
13000000: global: x0=0x00000000
13000000: global: x1=0x0001113c
13000000: global: x2=0x000110a0
13000000: global: x3=0x00000000
13000000: global: x4=0x00000000
13000000: global: x5=0x00000000
13000000: global: x6=0x00000000
13000000: global: x7=0x00000000
13000000: global: x8=0x00000000
13000000: global: x9=0x00000000
13000000: global: x10=0x00000000
13000000: global: x11=0x00000000
13000000: global: x12=0x00000000
13000000: global: x13=0x00000000
13000000: global: x14=0x00000000
13000000: global: x15=0x00000000
13000000: global: x16=0x00000000
13000000: global: x17=0x00000000
13000000: global: x18=0x00000000
13000000: global: x19=0x00000000
13000000: global: x20=0x00000000
13000000: global: x21=0x00000000
13000000: global: x22=0x00000000
13000000: global: x23=0x00000000
13000000: global: x24=0x00000000
13000000: global: x25=0x00000000
13000000: global: x26=0x00000000
13000000: global: x27=0x00000000
13000000: global: x28=0x00000000
13000000: global: x29=0x00000000
13000000: global: x30=0x00000000
13000000: global: x31=0x00000000
13000000: global: f0=0x00000000
13000000: global: f1=0x40933333
13000000: global: f2=0x00000000
13000000: global: f3=0x00000000
13000000: global: f4=0x00000000
13000000: global: f5=0x00000000
13000000: global: f6=0x00000000
13000000: global: f7=0x00000000
13000000: global: f8=0x00000000
13000000: global: f9=0x00000000
13000000: global: f10=0x00000000
13000000: global: f11=0x00000000
13000000: global: f12=0x00000000
13000000: global: f13=0x00000000
13000000: global: f14=0x00000000
13000000: global: f15=0x00000000
13000000: global: f16=0x00000000
13000000: global: f17=0x00000000
13000000: global: f18=0x00000000
13000000: global: f19=0x00000000
13000000: global: f20=0x00000000
13000000: global: f21=0x00000000
13000000: global: f22=0x00000000
13000000: global: f23=0x00000000
13000000: global: f24=0x00000000
13000000: global: f25=0x00000000
13000000: global: f26=0x00000000
13000000: global: f27=0x00000000
13000000: global: f28=0x00000000
13000000: global: f29=0x00000000
13000000: global: f30=0x00000000
13000000: global: f31=0x00000000
13000000: system.cpu.memory: Log4GUI: memory: 13000000: 0: 100a4: addi x2, x2, 220
13000000: system.cpu.execute: Log4GUI: execute: 13000000: 0: 100a8: flw f1, 0(x2): 0
13000000: system.cpu.decode: Log4GUI: decode: 13000000: 0: 100ac: auipc x3, 1
13000000: system.cpu.fetch1: Log4GUI: fetch1: 13000000: 0: 100b0: <assembly>
14000000: system.cpu.writeback: Log4GUI: writeback: 14000000: 0: 100a4: addi x2, x2, 220
14000000: system.cpu.writeback: REGISTERS
14000000: global: x0=0x00000000
14000000: global: x1=0x0001113c
14000000: global: x2=0x0001117c
14000000: global: x3=0x00000000
14000000: global: x4=0x00000000
14000000: global: x5=0x00000000
14000000: global: x6=0x00000000
14000000: global: x7=0x00000000
14000000: global: x8=0x00000000
14000000: global: x9=0x00000000
14000000: global: x10=0x00000000
14000000: global: x11=0x00000000
14000000: global: x12=0x00000000
14000000: global: x13=0x00000000
14000000: global: x14=0x00000000
14000000: global: x15=0x00000000
14000000: global: x16=0x00000000
14000000: global: x17=0x00000000
14000000: global: x18=0x00000000
14000000: global: x19=0x00000000
14000000: global: x20=0x00000000
14000000: global: x21=0x00000000
14000000: global: x22=0x00000000
14000000: global: x23=0x00000000
14000000: global: x24=0x00000000
14000000: global: x25=0x00000000
14000000: global: x26=0x00000000
14000000: global: x27=0x00000000
14000000: global: x28=0x00000000
14000000: global: x29=0x00000000
14000000: global: x30=0x00000000
14000000: global: x31=0x00000000
14000000: global: f0=0x00000000
14000000: global: f1=0x40933333
14000000: global: f2=0x00000000
14000000: global: f3=0x00000000
14000000: global: f4=0x00000000
14000000: global: f5=0x00000000
14000000: global: f6=0x00000000
14000000: global: f7=0x00000000
14000000: global: f8=0x00000000
14000000: global: f9=0x00000000
14000000: global: f10=0x00000000
14000000: global: f11=0x00000000
14000000: global: f12=0x00000000
14000000: global: f13=0x00000000
14000000: global: f14=0x00000000
14000000: global: f15=0x00000000
14000000: global: f16=0x00000000
14000000: global: f17=0x00000000
14000000: global: f18=0x00000000
14000000: global: f19=0x00000000
14000000: global: f20=0x00000000
14000000: global: f21=0x00000000
14000000: global: f22=0x00000000
14000000: global: f23=0x00000000
14000000: global: f24=0x00000000
14000000: global: f25=0x00000000
14000000: global: f26=0x00000000
14000000: global: f27=0x00000000
14000000: global: f28=0x00000000
14000000: global: f29=0x00000000
14000000: global: f30=0x00000000
14000000: global: f31=0x00000000
14000000: system.cpu.memory: Log4GUI: memory: 14000000: 0: 100a8: flw f1, 0(x2)
14000000: system.cpu.execute: Log4GUI: execute: 14000000: 0: 100ac: auipc x3, 1: 0
14000000: system.cpu.decode: Log4GUI: decode: 14000000: 0: 100b0: addi x3, x3, 272
14000000: system.cpu.fetch1: Log4GUI: fetch1: 14000000: 0: 100b4: <assembly>
15000000: system.cpu.writeback: Log4GUI: writeback: 15000000: 0: 100a8: flw f1, 0(x2)
15000000: system.cpu.writeback: REGISTERS
15000000: global: x0=0x00000000
15000000: global: x1=0x0001113c
15000000: global: x2=0x0001117c
15000000: global: x3=0x00000000
15000000: global: x4=0x00000000
15000000: global: x5=0x00000000
15000000: global: x6=0x00000000
15000000: global: x7=0x00000000
15000000: global: x8=0x00000000
15000000: global: x9=0x00000000
15000000: global: x10=0x00000000
15000000: global: x11=0x00000000
15000000: global: x12=0x00000000
15000000: global: x13=0x00000000
15000000: global: x14=0x00000000
15000000: global: x15=0x00000000
15000000: global: x16=0x00000000
15000000: global: x17=0x00000000
15000000: global: x18=0x00000000
15000000: global: x19=0x00000000
15000000: global: x20=0x00000000
15000000: global: x21=0x00000000
15000000: global: x22=0x00000000
15000000: global: x23=0x00000000
15000000: global: x24=0x00000000
15000000: global: x25=0x00000000
15000000: global: x26=0x00000000
15000000: global: x27=0x00000000
15000000: global: x28=0x00000000
15000000: global: x29=0x00000000
15000000: global: x30=0x00000000
15000000: global: x31=0x00000000
15000000: global: f0=0x00000000
15000000: global: f1=0x4019999a
15000000: global: f2=0x00000000
15000000: global: f3=0x00000000
15000000: global: f4=0x00000000
15000000: global: f5=0x00000000
15000000: global: f6=0x00000000
15000000: global: f7=0x00000000
15000000: global: f8=0x00000000
15000000: global: f9=0x00000000
15000000: global: f10=0x00000000
15000000: global: f11=0x00000000
15000000: global: f12=0x00000000
15000000: global: f13=0x00000000
15000000: global: f14=0x00000000
15000000: global: f15=0x00000000
15000000: global: f16=0x00000000
15000000: global: f17=0x00000000
15000000: global: f18=0x00000000
15000000: global: f19=0x00000000
15000000: global: f20=0x00000000
15000000: global: f21=0x00000000
15000000: global: f22=0x00000000
15000000: global: f23=0x00000000
15000000: global: f24=0x00000000
15000000: global: f25=0x00000000
15000000: global: f26=0x00000000
15000000: global: f27=0x00000000
15000000: global: f28=0x00000000
15000000: global: f29=0x00000000
15000000: global: f30=0x00000000
15000000: global: f31=0x00000000
15000000: system.cpu.memory: Log4GUI: memory: 15000000: 0: 100ac: auipc x3, 1
15000000: system.cpu.execute: Log4GUI: execute: 15000000: 0: 100b0: addi x3, x3, 272: 0
15000000: system.cpu.decode: Log4GUI: decode: 15000000: 0: 100b4: lb x4, 0(x3)
15000000: system.cpu.fetch1: Log4GUI: fetch1: 15000000: 0: 100b8: <assembly>
16000000: system.cpu.writeback: Log4GUI: writeback: 16000000: 0: 100ac: auipc x3, 1
16000000: system.cpu.writeback: REGISTERS
16000000: global: x0=0x00000000
16000000: global: x1=0x0001113c
16000000: global: x2=0x0001117c
16000000: global: x3=0x000110ac
16000000: global: x4=0x00000000
16000000: global: x5=0x00000000
16000000: global: x6=0x00000000
16000000: global: x7=0x00000000
16000000: global: x8=0x00000000
16000000: global: x9=0x00000000
16000000: global: x10=0x00000000
16000000: global: x11=0x00000000
16000000: global: x12=0x00000000
16000000: global: x13=0x00000000
16000000: global: x14=0x00000000
16000000: global: x15=0x00000000
16000000: global: x16=0x00000000
16000000: global: x17=0x00000000
16000000: global: x18=0x00000000
16000000: global: x19=0x00000000
16000000: global: x20=0x00000000
16000000: global: x21=0x00000000
16000000: global: x22=0x00000000
16000000: global: x23=0x00000000
16000000: global: x24=0x00000000
16000000: global: x25=0x00000000
16000000: global: x26=0x00000000
16000000: global: x27=0x00000000
16000000: global: x28=0x00000000
16000000: global: x29=0x00000000
16000000: global: x30=0x00000000
16000000: global: x31=0x00000000
16000000: global: f0=0x00000000
16000000: global: f1=0x4019999a
16000000: global: f2=0x00000000
16000000: global: f3=0x00000000
16000000: global: f4=0x00000000
16000000: global: f5=0x00000000
16000000: global: f6=0x00000000
16000000: global: f7=0x00000000
16000000: global: f8=0x00000000
16000000: global: f9=0x00000000
16000000: global: f10=0x00000000
16000000: global: f11=0x00000000
16000000: global: f12=0x00000000
16000000: global: f13=0x00000000
16000000: global: f14=0x00000000
16000000: global: f15=0x00000000
16000000: global: f16=0x00000000
16000000: global: f17=0x00000000
16000000: global: f18=0x00000000
16000000: global: f19=0x00000000
16000000: global: f20=0x00000000
16000000: global: f21=0x00000000
16000000: global: f22=0x00000000
16000000: global: f23=0x00000000
16000000: global: f24=0x00000000
16000000: global: f25=0x00000000
16000000: global: f26=0x00000000
16000000: global: f27=0x00000000
16000000: global: f28=0x00000000
16000000: global: f29=0x00000000
16000000: global: f30=0x00000000
16000000: global: f31=0x00000000
16000000: system.cpu.memory: Log4GUI: memory: 16000000: 0: 100b0: addi x3, x3, 272
16000000: system.cpu.execute: Log4GUI: execute: 16000000: 0: 100b4: lb x4, 0(x3): 0
16000000: system.cpu.decode: Log4GUI: decode: 16000000: 0: 100b8: auipc x3, 1
16000000: system.cpu.fetch1: Log4GUI: fetch1: 16000000: 0: 100bc: <assembly>
17000000: system.cpu.writeback: Log4GUI: writeback: 17000000: 0: 100b0: addi x3, x3, 272
17000000: system.cpu.writeback: REGISTERS
17000000: global: x0=0x00000000
17000000: global: x1=0x0001113c
17000000: global: x2=0x0001117c
17000000: global: x3=0x000111bc
17000000: global: x4=0x00000000
17000000: global: x5=0x00000000
17000000: global: x6=0x00000000
17000000: global: x7=0x00000000
17000000: global: x8=0x00000000
17000000: global: x9=0x00000000
17000000: global: x10=0x00000000
17000000: global: x11=0x00000000
17000000: global: x12=0x00000000
17000000: global: x13=0x00000000
17000000: global: x14=0x00000000
17000000: global: x15=0x00000000
17000000: global: x16=0x00000000
17000000: global: x17=0x00000000
17000000: global: x18=0x00000000
17000000: global: x19=0x00000000
17000000: global: x20=0x00000000
17000000: global: x21=0x00000000
17000000: global: x22=0x00000000
17000000: global: x23=0x00000000
17000000: global: x24=0x00000000
17000000: global: x25=0x00000000
17000000: global: x26=0x00000000
17000000: global: x27=0x00000000
17000000: global: x28=0x00000000
17000000: global: x29=0x00000000
17000000: global: x30=0x00000000
17000000: global: x31=0x00000000
17000000: global: f0=0x00000000
17000000: global: f1=0x4019999a
17000000: global: f2=0x00000000
17000000: global: f3=0x00000000
17000000: global: f4=0x00000000
17000000: global: f5=0x00000000
17000000: global: f6=0x00000000
17000000: global: f7=0x00000000
17000000: global: f8=0x00000000
17000000: global: f9=0x00000000
17000000: global: f10=0x00000000
17000000: global: f11=0x00000000
17000000: global: f12=0x00000000
17000000: global: f13=0x00000000
17000000: global: f14=0x00000000
17000000: global: f15=0x00000000
17000000: global: f16=0x00000000
17000000: global: f17=0x00000000
17000000: global: f18=0x00000000
17000000: global: f19=0x00000000
17000000: global: f20=0x00000000
17000000: global: f21=0x00000000
17000000: global: f22=0x00000000
17000000: global: f23=0x00000000
17000000: global: f24=0x00000000
17000000: global: f25=0x00000000
17000000: global: f26=0x00000000
17000000: global: f27=0x00000000
17000000: global: f28=0x00000000
17000000: global: f29=0x00000000
17000000: global: f30=0x00000000
17000000: global: f31=0x00000000
17000000: system.cpu.memory: Log4GUI: memory: 17000000: 0: 100b4: lb x4, 0(x3)
17000000: system.cpu.execute: Log4GUI: execute: 17000000: 0: 100b8: auipc x3, 1: 0
17000000: system.cpu.decode: Log4GUI: decode: 17000000: 0: 100bc: addi x3, x3, 265
17000000: system.cpu.fetch1: Log4GUI: fetch1: 17000000: 0: 100c0: <assembly>
18000000: system.cpu.writeback: Log4GUI: writeback: 18000000: 0: 100b4: lb x4, 0(x3)
18000000: system.cpu.writeback: REGISTERS
18000000: global: x0=0x00000000
18000000: global: x1=0x0001113c
18000000: global: x2=0x0001117c
18000000: global: x3=0x000111bc
18000000: global: x4=0xffffffab
18000000: global: x5=0x00000000
18000000: global: x6=0x00000000
18000000: global: x7=0x00000000
18000000: global: x8=0x00000000
18000000: global: x9=0x00000000
18000000: global: x10=0x00000000
18000000: global: x11=0x00000000
18000000: global: x12=0x00000000
18000000: global: x13=0x00000000
18000000: global: x14=0x00000000
18000000: global: x15=0x00000000
18000000: global: x16=0x00000000
18000000: global: x17=0x00000000
18000000: global: x18=0x00000000
18000000: global: x19=0x00000000
18000000: global: x20=0x00000000
18000000: global: x21=0x00000000
18000000: global: x22=0x00000000
18000000: global: x23=0x00000000
18000000: global: x24=0x00000000
18000000: global: x25=0x00000000
18000000: global: x26=0x00000000
18000000: global: x27=0x00000000
18000000: global: x28=0x00000000
18000000: global: x29=0x00000000
18000000: global: x30=0x00000000
18000000: global: x31=0x00000000
18000000: global: f0=0x00000000
18000000: global: f1=0x4019999a
18000000: global: f2=0x00000000
18000000: global: f3=0x00000000
18000000: global: f4=0x00000000
18000000: global: f5=0x00000000
18000000: global: f6=0x00000000
18000000: global: f7=0x00000000
18000000: global: f8=0x00000000
18000000: global: f9=0x00000000
18000000: global: f10=0x00000000
18000000: global: f11=0x00000000
18000000: global: f12=0x00000000
18000000: global: f13=0x00000000
18000000: global: f14=0x00000000
18000000: global: f15=0x00000000
18000000: global: f16=0x00000000
18000000: global: f17=0x00000000
18000000: global: f18=0x00000000
18000000: global: f19=0x00000000
18000000: global: f20=0x00000000
18000000: global: f21=0x00000000
18000000: global: f22=0x00000000
18000000: global: f23=0x00000000
18000000: global: f24=0x00000000
18000000: global: f25=0x00000000
18000000: global: f26=0x00000000
18000000: global: f27=0x00000000
18000000: global: f28=0x00000000
18000000: global: f29=0x00000000
18000000: global: f30=0x00000000
18000000: global: f31=0x00000000
18000000: system.cpu.memory: Log4GUI: memory: 18000000: 0: 100b8: auipc x3, 1
18000000: system.cpu.execute: Log4GUI: execute: 18000000: 0: 100bc: addi x3, x3, 265: 0
18000000: system.cpu.decode: Log4GUI: decode: 18000000: 0: 100c0: lb x5, 0(x3)
18000000: system.cpu.fetch1: Log4GUI: fetch1: 18000000: 0: 100c4: <assembly>
19000000: system.cpu.writeback: Log4GUI: writeback: 19000000: 0: 100b8: auipc x3, 1
19000000: system.cpu.writeback: REGISTERS
19000000: global: x0=0x00000000
19000000: global: x1=0x0001113c
19000000: global: x2=0x0001117c
19000000: global: x3=0x000110b8
19000000: global: x4=0xffffffab
19000000: global: x5=0x00000000
19000000: global: x6=0x00000000
19000000: global: x7=0x00000000
19000000: global: x8=0x00000000
19000000: global: x9=0x00000000
19000000: global: x10=0x00000000
19000000: global: x11=0x00000000
19000000: global: x12=0x00000000
19000000: global: x13=0x00000000
19000000: global: x14=0x00000000
19000000: global: x15=0x00000000
19000000: global: x16=0x00000000
19000000: global: x17=0x00000000
19000000: global: x18=0x00000000
19000000: global: x19=0x00000000
19000000: global: x20=0x00000000
19000000: global: x21=0x00000000
19000000: global: x22=0x00000000
19000000: global: x23=0x00000000
19000000: global: x24=0x00000000
19000000: global: x25=0x00000000
19000000: global: x26=0x00000000
19000000: global: x27=0x00000000
19000000: global: x28=0x00000000
19000000: global: x29=0x00000000
19000000: global: x30=0x00000000
19000000: global: x31=0x00000000
19000000: global: f0=0x00000000
19000000: global: f1=0x4019999a
19000000: global: f2=0x00000000
19000000: global: f3=0x00000000
19000000: global: f4=0x00000000
19000000: global: f5=0x00000000
19000000: global: f6=0x00000000
19000000: global: f7=0x00000000
19000000: global: f8=0x00000000
19000000: global: f9=0x00000000
19000000: global: f10=0x00000000
19000000: global: f11=0x00000000
19000000: global: f12=0x00000000
19000000: global: f13=0x00000000
19000000: global: f14=0x00000000
19000000: global: f15=0x00000000
19000000: global: f16=0x00000000
19000000: global: f17=0x00000000
19000000: global: f18=0x00000000
19000000: global: f19=0x00000000
19000000: global: f20=0x00000000
19000000: global: f21=0x00000000
19000000: global: f22=0x00000000
19000000: global: f23=0x00000000
19000000: global: f24=0x00000000
19000000: global: f25=0x00000000
19000000: global: f26=0x00000000
19000000: global: f27=0x00000000
19000000: global: f28=0x00000000
19000000: global: f29=0x00000000
19000000: global: f30=0x00000000
19000000: global: f31=0x00000000
19000000: system.cpu.memory: Log4GUI: memory: 19000000: 0: 100bc: addi x3, x3, 265
19000000: system.cpu.execute: Log4GUI: execute: 19000000: 0: 100c0: lb x5, 0(x3): 0
19000000: system.cpu.decode: Log4GUI: decode: 19000000: 0: 100c4: auipc x8, 1
19000000: system.cpu.fetch1: Log4GUI: fetch1: 19000000: 0: 100c8: <assembly>
20000000: system.cpu.writeback: Log4GUI: writeback: 20000000: 0: 100bc: addi x3, x3, 265
20000000: system.cpu.writeback: REGISTERS
20000000: global: x0=0x00000000
20000000: global: x1=0x0001113c
20000000: global: x2=0x0001117c
20000000: global: x3=0x000111c1
20000000: global: x4=0xffffffab
20000000: global: x5=0x00000000
20000000: global: x6=0x00000000
20000000: global: x7=0x00000000
20000000: global: x8=0x00000000
20000000: global: x9=0x00000000
20000000: global: x10=0x00000000
20000000: global: x11=0x00000000
20000000: global: x12=0x00000000
20000000: global: x13=0x00000000
20000000: global: x14=0x00000000
20000000: global: x15=0x00000000
20000000: global: x16=0x00000000
20000000: global: x17=0x00000000
20000000: global: x18=0x00000000
20000000: global: x19=0x00000000
20000000: global: x20=0x00000000
20000000: global: x21=0x00000000
20000000: global: x22=0x00000000
20000000: global: x23=0x00000000
20000000: global: x24=0x00000000
20000000: global: x25=0x00000000
20000000: global: x26=0x00000000
20000000: global: x27=0x00000000
20000000: global: x28=0x00000000
20000000: global: x29=0x00000000
20000000: global: x30=0x00000000
20000000: global: x31=0x00000000
20000000: global: f0=0x00000000
20000000: global: f1=0x4019999a
20000000: global: f2=0x00000000
20000000: global: f3=0x00000000
20000000: global: f4=0x00000000
20000000: global: f5=0x00000000
20000000: global: f6=0x00000000
20000000: global: f7=0x00000000
20000000: global: f8=0x00000000
20000000: global: f9=0x00000000
20000000: global: f10=0x00000000
20000000: global: f11=0x00000000
20000000: global: f12=0x00000000
20000000: global: f13=0x00000000
20000000: global: f14=0x00000000
20000000: global: f15=0x00000000
20000000: global: f16=0x00000000
20000000: global: f17=0x00000000
20000000: global: f18=0x00000000
20000000: global: f19=0x00000000
20000000: global: f20=0x00000000
20000000: global: f21=0x00000000
20000000: global: f22=0x00000000
20000000: global: f23=0x00000000
20000000: global: f24=0x00000000
20000000: global: f25=0x00000000
20000000: global: f26=0x00000000
20000000: global: f27=0x00000000
20000000: global: f28=0x00000000
20000000: global: f29=0x00000000
20000000: global: f30=0x00000000
20000000: global: f31=0x00000000
20000000: system.cpu.memory: Log4GUI: memory: 20000000: 0: 100c0: lb x5, 0(x3)
20000000: system.cpu.execute: Log4GUI: execute: 20000000: 0: 100c4: auipc x8, 1: 0
20000000: system.cpu.decode: Log4GUI: decode: 20000000: 0: 100c8: addi x8, x8, 249
20000000: system.cpu.fetch1: Log4GUI: fetch1: 20000000: 0: 100cc: <assembly>
21000000: system.cpu.writeback: Log4GUI: writeback: 21000000: 0: 100c0: lb x5, 0(x3)
21000000: system.cpu.writeback: REGISTERS
21000000: global: x0=0x00000000
21000000: global: x1=0x0001113c
21000000: global: x2=0x0001117c
21000000: global: x3=0x000111c1
21000000: global: x4=0xffffffab
21000000: global: x5=0x00000010
21000000: global: x6=0x00000000
21000000: global: x7=0x00000000
21000000: global: x8=0x00000000
21000000: global: x9=0x00000000
21000000: global: x10=0x00000000
21000000: global: x11=0x00000000
21000000: global: x12=0x00000000
21000000: global: x13=0x00000000
21000000: global: x14=0x00000000
21000000: global: x15=0x00000000
21000000: global: x16=0x00000000
21000000: global: x17=0x00000000
21000000: global: x18=0x00000000
21000000: global: x19=0x00000000
21000000: global: x20=0x00000000
21000000: global: x21=0x00000000
21000000: global: x22=0x00000000
21000000: global: x23=0x00000000
21000000: global: x24=0x00000000
21000000: global: x25=0x00000000
21000000: global: x26=0x00000000
21000000: global: x27=0x00000000
21000000: global: x28=0x00000000
21000000: global: x29=0x00000000
21000000: global: x30=0x00000000
21000000: global: x31=0x00000000
21000000: global: f0=0x00000000
21000000: global: f1=0x4019999a
21000000: global: f2=0x00000000
21000000: global: f3=0x00000000
21000000: global: f4=0x00000000
21000000: global: f5=0x00000000
21000000: global: f6=0x00000000
21000000: global: f7=0x00000000
21000000: global: f8=0x00000000
21000000: global: f9=0x00000000
21000000: global: f10=0x00000000
21000000: global: f11=0x00000000
21000000: global: f12=0x00000000
21000000: global: f13=0x00000000
21000000: global: f14=0x00000000
21000000: global: f15=0x00000000
21000000: global: f16=0x00000000
21000000: global: f17=0x00000000
21000000: global: f18=0x00000000
21000000: global: f19=0x00000000
21000000: global: f20=0x00000000
21000000: global: f21=0x00000000
21000000: global: f22=0x00000000
21000000: global: f23=0x00000000
21000000: global: f24=0x00000000
21000000: global: f25=0x00000000
21000000: global: f26=0x00000000
21000000: global: f27=0x00000000
21000000: global: f28=0x00000000
21000000: global: f29=0x00000000
21000000: global: f30=0x00000000
21000000: global: f31=0x00000000
21000000: system.cpu.memory: Log4GUI: memory: 21000000: 0: 100c4: auipc x8, 1
21000000: system.cpu.execute: Log4GUI: execute: 21000000: 0: 100c8: addi x8, x8, 249: 0
21000000: system.cpu.decode: Log4GUI: decode: 21000000: 0: 100cc: lw x9, 0(x8)
21000000: system.cpu.fetch1: Log4GUI: fetch1: 21000000: 0: 100d0: <assembly>
22000000: system.cpu.writeback: Log4GUI: writeback: 22000000: 0: 100c4: auipc x8, 1
22000000: system.cpu.writeback: REGISTERS
22000000: global: x0=0x00000000
22000000: global: x1=0x0001113c
22000000: global: x2=0x0001117c
22000000: global: x3=0x000111c1
22000000: global: x4=0xffffffab
22000000: global: x5=0x00000010
22000000: global: x6=0x00000000
22000000: global: x7=0x00000000
22000000: global: x8=0x000110c4
22000000: global: x9=0x00000000
22000000: global: x10=0x00000000
22000000: global: x11=0x00000000
22000000: global: x12=0x00000000
22000000: global: x13=0x00000000
22000000: global: x14=0x00000000
22000000: global: x15=0x00000000
22000000: global: x16=0x00000000
22000000: global: x17=0x00000000
22000000: global: x18=0x00000000
22000000: global: x19=0x00000000
22000000: global: x20=0x00000000
22000000: global: x21=0x00000000
22000000: global: x22=0x00000000
22000000: global: x23=0x00000000
22000000: global: x24=0x00000000
22000000: global: x25=0x00000000
22000000: global: x26=0x00000000
22000000: global: x27=0x00000000
22000000: global: x28=0x00000000
22000000: global: x29=0x00000000
22000000: global: x30=0x00000000
22000000: global: x31=0x00000000
22000000: global: f0=0x00000000
22000000: global: f1=0x4019999a
22000000: global: f2=0x00000000
22000000: global: f3=0x00000000
22000000: global: f4=0x00000000
22000000: global: f5=0x00000000
22000000: global: f6=0x00000000
22000000: global: f7=0x00000000
22000000: global: f8=0x00000000
22000000: global: f9=0x00000000
22000000: global: f10=0x00000000
22000000: global: f11=0x00000000
22000000: global: f12=0x00000000
22000000: global: f13=0x00000000
22000000: global: f14=0x00000000
22000000: global: f15=0x00000000
22000000: global: f16=0x00000000
22000000: global: f17=0x00000000
22000000: global: f18=0x00000000
22000000: global: f19=0x00000000
22000000: global: f20=0x00000000
22000000: global: f21=0x00000000
22000000: global: f22=0x00000000
22000000: global: f23=0x00000000
22000000: global: f24=0x00000000
22000000: global: f25=0x00000000
22000000: global: f26=0x00000000
22000000: global: f27=0x00000000
22000000: global: f28=0x00000000
22000000: global: f29=0x00000000
22000000: global: f30=0x00000000
22000000: global: f31=0x00000000
22000000: system.cpu.memory: Log4GUI: memory: 22000000: 0: 100c8: addi x8, x8, 249
22000000: system.cpu.execute: Log4GUI: execute: 22000000: 0: 100cc: lw x9, 0(x8): 0
22000000: system.cpu.decode: Log4GUI: decode: 22000000: 0: 100d0: auipc x11, 1
22000000: system.cpu.fetch1: Log4GUI: fetch1: 22000000: 0: 100d4: <assembly>
23000000: system.cpu.writeback: Log4GUI: writeback: 23000000: 0: 100c8: addi x8, x8, 249
23000000: system.cpu.writeback: REGISTERS
23000000: global: x0=0x00000000
23000000: global: x1=0x0001113c
23000000: global: x2=0x0001117c
23000000: global: x3=0x000111c1
23000000: global: x4=0xffffffab
23000000: global: x5=0x00000010
23000000: global: x6=0x00000000
23000000: global: x7=0x00000000
23000000: global: x8=0x000111bd
23000000: global: x9=0x00000000
23000000: global: x10=0x00000000
23000000: global: x11=0x00000000
23000000: global: x12=0x00000000
23000000: global: x13=0x00000000
23000000: global: x14=0x00000000
23000000: global: x15=0x00000000
23000000: global: x16=0x00000000
23000000: global: x17=0x00000000
23000000: global: x18=0x00000000
23000000: global: x19=0x00000000
23000000: global: x20=0x00000000
23000000: global: x21=0x00000000
23000000: global: x22=0x00000000
23000000: global: x23=0x00000000
23000000: global: x24=0x00000000
23000000: global: x25=0x00000000
23000000: global: x26=0x00000000
23000000: global: x27=0x00000000
23000000: global: x28=0x00000000
23000000: global: x29=0x00000000
23000000: global: x30=0x00000000
23000000: global: x31=0x00000000
23000000: global: f0=0x00000000
23000000: global: f1=0x4019999a
23000000: global: f2=0x00000000
23000000: global: f3=0x00000000
23000000: global: f4=0x00000000
23000000: global: f5=0x00000000
23000000: global: f6=0x00000000
23000000: global: f7=0x00000000
23000000: global: f8=0x00000000
23000000: global: f9=0x00000000
23000000: global: f10=0x00000000
23000000: global: f11=0x00000000
23000000: global: f12=0x00000000
23000000: global: f13=0x00000000
23000000: global: f14=0x00000000
23000000: global: f15=0x00000000
23000000: global: f16=0x00000000
23000000: global: f17=0x00000000
23000000: global: f18=0x00000000
23000000: global: f19=0x00000000
23000000: global: f20=0x00000000
23000000: global: f21=0x00000000
23000000: global: f22=0x00000000
23000000: global: f23=0x00000000
23000000: global: f24=0x00000000
23000000: global: f25=0x00000000
23000000: global: f26=0x00000000
23000000: global: f27=0x00000000
23000000: global: f28=0x00000000
23000000: global: f29=0x00000000
23000000: global: f30=0x00000000
23000000: global: f31=0x00000000
23000000: system.cpu.memory: Log4GUI: memory: 23000000: 0: 100cc: lw x9, 0(x8)
23000000: system.cpu.execute: Log4GUI: execute: 23000000: 0: 100d0: auipc x11, 1: 0
23000000: system.cpu.decode: Log4GUI: decode: 23000000: 0: 100d4: addi x11, x11, 236
23000000: system.cpu.fetch1: Log4GUI: fetch1: 23000000: 0: 100d8: <assembly>
24000000: system.cpu.writeback: Log4GUI: writeback: 24000000: 0: 100cc: lw x9, 0(x8)
24000000: system.cpu.writeback: REGISTERS
24000000: global: x0=0x00000000
24000000: global: x1=0x0001113c
24000000: global: x2=0x0001117c
24000000: global: x3=0x000111c1
24000000: global: x4=0xffffffab
24000000: global: x5=0x00000010
24000000: global: x6=0x00000000
24000000: global: x7=0x00000000
24000000: global: x8=0x000111bd
24000000: global: x9=0x7f800000
24000000: global: x10=0x00000000
24000000: global: x11=0x00000000
24000000: global: x12=0x00000000
24000000: global: x13=0x00000000
24000000: global: x14=0x00000000
24000000: global: x15=0x00000000
24000000: global: x16=0x00000000
24000000: global: x17=0x00000000
24000000: global: x18=0x00000000
24000000: global: x19=0x00000000
24000000: global: x20=0x00000000
24000000: global: x21=0x00000000
24000000: global: x22=0x00000000
24000000: global: x23=0x00000000
24000000: global: x24=0x00000000
24000000: global: x25=0x00000000
24000000: global: x26=0x00000000
24000000: global: x27=0x00000000
24000000: global: x28=0x00000000
24000000: global: x29=0x00000000
24000000: global: x30=0x00000000
24000000: global: x31=0x00000000
24000000: global: f0=0x00000000
24000000: global: f1=0x4019999a
24000000: global: f2=0x00000000
24000000: global: f3=0x00000000
24000000: global: f4=0x00000000
24000000: global: f5=0x00000000
24000000: global: f6=0x00000000
24000000: global: f7=0x00000000
24000000: global: f8=0x00000000
24000000: global: f9=0x00000000
24000000: global: f10=0x00000000
24000000: global: f11=0x00000000
24000000: global: f12=0x00000000
24000000: global: f13=0x00000000
24000000: global: f14=0x00000000
24000000: global: f15=0x00000000
24000000: global: f16=0x00000000
24000000: global: f17=0x00000000
24000000: global: f18=0x00000000
24000000: global: f19=0x00000000
24000000: global: f20=0x00000000
24000000: global: f21=0x00000000
24000000: global: f22=0x00000000
24000000: global: f23=0x00000000
24000000: global: f24=0x00000000
24000000: global: f25=0x00000000
24000000: global: f26=0x00000000
24000000: global: f27=0x00000000
24000000: global: f28=0x00000000
24000000: global: f29=0x00000000
24000000: global: f30=0x00000000
24000000: global: f31=0x00000000
24000000: system.cpu.memory: Log4GUI: memory: 24000000: 0: 100d0: auipc x11, 1
24000000: system.cpu.execute: Log4GUI: execute: 24000000: 0: 100d4: addi x11, x11, 236: 0
24000000: system.cpu.decode: Log4GUI: decode: 24000000: 0: 100d8: add x6, x0, x0
24000000: system.cpu.fetch1: Log4GUI: fetch1: 24000000: 0: 100dc: <assembly>
25000000: system.cpu.writeback: Log4GUI: writeback: 25000000: 0: 100d0: auipc x11, 1
25000000: system.cpu.writeback: REGISTERS
25000000: global: x0=0x00000000
25000000: global: x1=0x0001113c
25000000: global: x2=0x0001117c
25000000: global: x3=0x000111c1
25000000: global: x4=0xffffffab
25000000: global: x5=0x00000010
25000000: global: x6=0x00000000
25000000: global: x7=0x00000000
25000000: global: x8=0x000111bd
25000000: global: x9=0x7f800000
25000000: global: x10=0x00000000
25000000: global: x11=0x000110d0
25000000: global: x12=0x00000000
25000000: global: x13=0x00000000
25000000: global: x14=0x00000000
25000000: global: x15=0x00000000
25000000: global: x16=0x00000000
25000000: global: x17=0x00000000
25000000: global: x18=0x00000000
25000000: global: x19=0x00000000
25000000: global: x20=0x00000000
25000000: global: x21=0x00000000
25000000: global: x22=0x00000000
25000000: global: x23=0x00000000
25000000: global: x24=0x00000000
25000000: global: x25=0x00000000
25000000: global: x26=0x00000000
25000000: global: x27=0x00000000
25000000: global: x28=0x00000000
25000000: global: x29=0x00000000
25000000: global: x30=0x00000000
25000000: global: x31=0x00000000
25000000: global: f0=0x00000000
25000000: global: f1=0x4019999a
25000000: global: f2=0x00000000
25000000: global: f3=0x00000000
25000000: global: f4=0x00000000
25000000: global: f5=0x00000000
25000000: global: f6=0x00000000
25000000: global: f7=0x00000000
25000000: global: f8=0x00000000
25000000: global: f9=0x00000000
25000000: global: f10=0x00000000
25000000: global: f11=0x00000000
25000000: global: f12=0x00000000
25000000: global: f13=0x00000000
25000000: global: f14=0x00000000
25000000: global: f15=0x00000000
25000000: global: f16=0x00000000
25000000: global: f17=0x00000000
25000000: global: f18=0x00000000
25000000: global: f19=0x00000000
25000000: global: f20=0x00000000
25000000: global: f21=0x00000000
25000000: global: f22=0x00000000
25000000: global: f23=0x00000000
25000000: global: f24=0x00000000
25000000: global: f25=0x00000000
25000000: global: f26=0x00000000
25000000: global: f27=0x00000000
25000000: global: f28=0x00000000
25000000: global: f29=0x00000000
25000000: global: f30=0x00000000
25000000: global: f31=0x00000000
25000000: system.cpu.memory: Log4GUI: memory: 25000000: 0: 100d4: addi x11, x11, 236
25000000: system.cpu.execute: Log4GUI: execute: 25000000: 0: 100d8: add x6, x0, x0: 0
25000000: system.cpu.decode: Log4GUI: decode: 25000000: 0: 100dc: slli x7, x6, 2
25000000: system.cpu.fetch1: Log4GUI: fetch1: 25000000: 0: 100e0: <assembly>
26000000: system.cpu.writeback: Log4GUI: writeback: 26000000: 0: 100d4: addi x11, x11, 236
26000000: system.cpu.writeback: REGISTERS
26000000: global: x0=0x00000000
26000000: global: x1=0x0001113c
26000000: global: x2=0x0001117c
26000000: global: x3=0x000111c1
26000000: global: x4=0xffffffab
26000000: global: x5=0x00000010
26000000: global: x6=0x00000000
26000000: global: x7=0x00000000
26000000: global: x8=0x000111bd
26000000: global: x9=0x7f800000
26000000: global: x10=0x00000000
26000000: global: x11=0x000111bc
26000000: global: x12=0x00000000
26000000: global: x13=0x00000000
26000000: global: x14=0x00000000
26000000: global: x15=0x00000000
26000000: global: x16=0x00000000
26000000: global: x17=0x00000000
26000000: global: x18=0x00000000
26000000: global: x19=0x00000000
26000000: global: x20=0x00000000
26000000: global: x21=0x00000000
26000000: global: x22=0x00000000
26000000: global: x23=0x00000000
26000000: global: x24=0x00000000
26000000: global: x25=0x00000000
26000000: global: x26=0x00000000
26000000: global: x27=0x00000000
26000000: global: x28=0x00000000
26000000: global: x29=0x00000000
26000000: global: x30=0x00000000
26000000: global: x31=0x00000000
26000000: global: f0=0x00000000
26000000: global: f1=0x4019999a
26000000: global: f2=0x00000000
26000000: global: f3=0x00000000
26000000: global: f4=0x00000000
26000000: global: f5=0x00000000
26000000: global: f6=0x00000000
26000000: global: f7=0x00000000
26000000: global: f8=0x00000000
26000000: global: f9=0x00000000
26000000: global: f10=0x00000000
26000000: global: f11=0x00000000
26000000: global: f12=0x00000000
26000000: global: f13=0x00000000
26000000: global: f14=0x00000000
26000000: global: f15=0x00000000
26000000: global: f16=0x00000000
26000000: global: f17=0x00000000
26000000: global: f18=0x00000000
26000000: global: f19=0x00000000
26000000: global: f20=0x00000000
26000000: global: f21=0x00000000
26000000: global: f22=0x00000000
26000000: global: f23=0x00000000
26000000: global: f24=0x00000000
26000000: global: f25=0x00000000
26000000: global: f26=0x00000000
26000000: global: f27=0x00000000
26000000: global: f28=0x00000000
26000000: global: f29=0x00000000
26000000: global: f30=0x00000000
26000000: global: f31=0x00000000
26000000: system.cpu.memory: Log4GUI: memory: 26000000: 0: 100d8: add x6, x0, x0
26000000: system.cpu.execute: Log4GUI: execute: 26000000: 0: 100dc: slli x7, x6, 2: 0
26000000: system.cpu.decode: Log4GUI: decode: 26000000: 0: 100e0: fcvt_s_w f3, x4
26000000: system.cpu.fetch1: Log4GUI: fetch1: 26000000: 0: 100e4: <assembly>
27000000: system.cpu.writeback: Log4GUI: writeback: 27000000: 0: 100d8: add x6, x0, x0
27000000: system.cpu.writeback: REGISTERS
27000000: global: x0=0x00000000
27000000: global: x1=0x0001113c
27000000: global: x2=0x0001117c
27000000: global: x3=0x000111c1
27000000: global: x4=0xffffffab
27000000: global: x5=0x00000010
27000000: global: x6=0x00000000
27000000: global: x7=0x00000000
27000000: global: x8=0x000111bd
27000000: global: x9=0x7f800000
27000000: global: x10=0x00000000
27000000: global: x11=0x000111bc
27000000: global: x12=0x00000000
27000000: global: x13=0x00000000
27000000: global: x14=0x00000000
27000000: global: x15=0x00000000
27000000: global: x16=0x00000000
27000000: global: x17=0x00000000
27000000: global: x18=0x00000000
27000000: global: x19=0x00000000
27000000: global: x20=0x00000000
27000000: global: x21=0x00000000
27000000: global: x22=0x00000000
27000000: global: x23=0x00000000
27000000: global: x24=0x00000000
27000000: global: x25=0x00000000
27000000: global: x26=0x00000000
27000000: global: x27=0x00000000
27000000: global: x28=0x00000000
27000000: global: x29=0x00000000
27000000: global: x30=0x00000000
27000000: global: x31=0x00000000
27000000: global: f0=0x00000000
27000000: global: f1=0x4019999a
27000000: global: f2=0x00000000
27000000: global: f3=0x00000000
27000000: global: f4=0x00000000
27000000: global: f5=0x00000000
27000000: global: f6=0x00000000
27000000: global: f7=0x00000000
27000000: global: f8=0x00000000
27000000: global: f9=0x00000000
27000000: global: f10=0x00000000
27000000: global: f11=0x00000000
27000000: global: f12=0x00000000
27000000: global: f13=0x00000000
27000000: global: f14=0x00000000
27000000: global: f15=0x00000000
27000000: global: f16=0x00000000
27000000: global: f17=0x00000000
27000000: global: f18=0x00000000
27000000: global: f19=0x00000000
27000000: global: f20=0x00000000
27000000: global: f21=0x00000000
27000000: global: f22=0x00000000
27000000: global: f23=0x00000000
27000000: global: f24=0x00000000
27000000: global: f25=0x00000000
27000000: global: f26=0x00000000
27000000: global: f27=0x00000000
27000000: global: f28=0x00000000
27000000: global: f29=0x00000000
27000000: global: f30=0x00000000
27000000: global: f31=0x00000000
27000000: system.cpu.memory: Log4GUI: memory: 27000000: 0: 100dc: slli x7, x6, 2
27000000: system.cpu.execute: Log4GUI: execute: 27000000: 0: 100e0: fcvt_s_w f3, x4: 3
27000000: system.cpu.decode: Log4GUI: decode: 27000000: 0: 100e4: fmv_w_x f5, x0
27000000: system.cpu.fetch1: Log4GUI: fetch1: 27000000: 0: 100e8: <assembly>
28000000: system.cpu.writeback: Log4GUI: writeback: 28000000: 0: 100dc: slli x7, x6, 2
28000000: system.cpu.writeback: REGISTERS
28000000: global: x0=0x00000000
28000000: global: x1=0x0001113c
28000000: global: x2=0x0001117c
28000000: global: x3=0x000111c1
28000000: global: x4=0xffffffab
28000000: global: x5=0x00000010
28000000: global: x6=0x00000000
28000000: global: x7=0x00000000
28000000: global: x8=0x000111bd
28000000: global: x9=0x7f800000
28000000: global: x10=0x00000000
28000000: global: x11=0x000111bc
28000000: global: x12=0x00000000
28000000: global: x13=0x00000000
28000000: global: x14=0x00000000
28000000: global: x15=0x00000000
28000000: global: x16=0x00000000
28000000: global: x17=0x00000000
28000000: global: x18=0x00000000
28000000: global: x19=0x00000000
28000000: global: x20=0x00000000
28000000: global: x21=0x00000000
28000000: global: x22=0x00000000
28000000: global: x23=0x00000000
28000000: global: x24=0x00000000
28000000: global: x25=0x00000000
28000000: global: x26=0x00000000
28000000: global: x27=0x00000000
28000000: global: x28=0x00000000
28000000: global: x29=0x00000000
28000000: global: x30=0x00000000
28000000: global: x31=0x00000000
28000000: global: f0=0x00000000
28000000: global: f1=0x4019999a
28000000: global: f2=0x00000000
28000000: global: f3=0x00000000
28000000: global: f4=0x00000000
28000000: global: f5=0x00000000
28000000: global: f6=0x00000000
28000000: global: f7=0x00000000
28000000: global: f8=0x00000000
28000000: global: f9=0x00000000
28000000: global: f10=0x00000000
28000000: global: f11=0x00000000
28000000: global: f12=0x00000000
28000000: global: f13=0x00000000
28000000: global: f14=0x00000000
28000000: global: f15=0x00000000
28000000: global: f16=0x00000000
28000000: global: f17=0x00000000
28000000: global: f18=0x00000000
28000000: global: f19=0x00000000
28000000: global: f20=0x00000000
28000000: global: f21=0x00000000
28000000: global: f22=0x00000000
28000000: global: f23=0x00000000
28000000: global: f24=0x00000000
28000000: global: f25=0x00000000
28000000: global: f26=0x00000000
28000000: global: f27=0x00000000
28000000: global: f28=0x00000000
28000000: global: f29=0x00000000
28000000: global: f30=0x00000000
28000000: global: f31=0x00000000
28000000: system.cpu.execute: Log4GUI: execute: 28000000: 0: 100e4: fmv_w_x f5, x0: 3
28000000: system.cpu.execute: Log4GUI: execute: 28000000: 0: 100e0: fcvt_s_w f3, x4: 3
28000000: system.cpu.decode: Log4GUI: decode: 28000000: 0: 100e8: beq x6, x5, 40
28000000: system.cpu.fetch1: Log4GUI: fetch1: 28000000: 0: 100ec: <assembly>
29000000: system.cpu.execute: Log4GUI: execute: 29000000: 0: 100e8: beq x6, x5, 40: 0
29000000: system.cpu.execute: Log4GUI: execute: 29000000: 0: 100e0: fcvt_s_w f3, x4: 3
29000000: system.cpu.execute: Log4GUI: execute: 29000000: 0: 100e4: fmv_w_x f5, x0: 3
29000000: system.cpu.decode: Log4GUI: decode: 29000000: 0: 100ec: add x12, x1, x7
29000000: system.cpu.fetch1: Log4GUI: fetch1: 29000000: 0: 100f0: <assembly>
30000000: system.cpu.memory: Log4GUI: memory: 30000000: 0: 100e8: beq x6, x5, 40
30000000: system.cpu.execute: Log4GUI: execute: 30000000: 0: 100ec: add x12, x1, x7: 0
30000000: system.cpu.execute: Log4GUI: execute: 30000000: 0: 100e0: fcvt_s_w f3, x4: 3
30000000: system.cpu.execute: Log4GUI: execute: 30000000: 0: 100e4: fmv_w_x f5, x0: 3
30000000: system.cpu.decode: Log4GUI: decode: 30000000: 0: 100f0: flw f1, 0(x12)
30000000: system.cpu.fetch1: Log4GUI: fetch1: 30000000: 0: 100f4: <assembly>
31000000: system.cpu.writeback: Log4GUI: writeback: 31000000: 0: 100e8: beq x6, x5, 40
31000000: system.cpu.writeback: REGISTERS
31000000: global: x0=0x00000000
31000000: global: x1=0x0001113c
31000000: global: x2=0x0001117c
31000000: global: x3=0x000111c1
31000000: global: x4=0xffffffab
31000000: global: x5=0x00000010
31000000: global: x6=0x00000000
31000000: global: x7=0x00000000
31000000: global: x8=0x000111bd
31000000: global: x9=0x7f800000
31000000: global: x10=0x00000000
31000000: global: x11=0x000111bc
31000000: global: x12=0x00000000
31000000: global: x13=0x00000000
31000000: global: x14=0x00000000
31000000: global: x15=0x00000000
31000000: global: x16=0x00000000
31000000: global: x17=0x00000000
31000000: global: x18=0x00000000
31000000: global: x19=0x00000000
31000000: global: x20=0x00000000
31000000: global: x21=0x00000000
31000000: global: x22=0x00000000
31000000: global: x23=0x00000000
31000000: global: x24=0x00000000
31000000: global: x25=0x00000000
31000000: global: x26=0x00000000
31000000: global: x27=0x00000000
31000000: global: x28=0x00000000
31000000: global: x29=0x00000000
31000000: global: x30=0x00000000
31000000: global: x31=0x00000000
31000000: global: f0=0x00000000
31000000: global: f1=0x4019999a
31000000: global: f2=0x00000000
31000000: global: f3=0x00000000
31000000: global: f4=0x00000000
31000000: global: f5=0x00000000
31000000: global: f6=0x00000000
31000000: global: f7=0x00000000
31000000: global: f8=0x00000000
31000000: global: f9=0x00000000
31000000: global: f10=0x00000000
31000000: global: f11=0x00000000
31000000: global: f12=0x00000000
31000000: global: f13=0x00000000
31000000: global: f14=0x00000000
31000000: global: f15=0x00000000
31000000: global: f16=0x00000000
31000000: global: f17=0x00000000
31000000: global: f18=0x00000000
31000000: global: f19=0x00000000
31000000: global: f20=0x00000000
31000000: global: f21=0x00000000
31000000: global: f22=0x00000000
31000000: global: f23=0x00000000
31000000: global: f24=0x00000000
31000000: global: f25=0x00000000
31000000: global: f26=0x00000000
31000000: global: f27=0x00000000
31000000: global: f28=0x00000000
31000000: global: f29=0x00000000
31000000: global: f30=0x00000000
31000000: global: f31=0x00000000
31000000: system.cpu.memory: Log4GUI: memory: 31000000: 0: 100e0: fcvt_s_w f3, x4
31000000: system.cpu.execute: Log4GUI: execute: 31000000: 0: 100e4: fmv_w_x f5, x0: 3
31000000: system.cpu.execute: Log4GUI: execute: 31000000: 1: 100ec: add x12, x1, x7: 0
31000000: system.cpu.decode: Log4GUI: decode: 31000000: 1: 100f0: flw f1, 0(x12)
31000000: system.cpu.fetch1: Log4GUI: fetch1: 31000000: 1: 100f4: <assembly>
32000000: system.cpu.writeback: Log4GUI: writeback: 32000000: 0: 100e0: fcvt_s_w f3, x4
32000000: system.cpu.writeback: REGISTERS
32000000: global: x0=0x00000000
32000000: global: x1=0x0001113c
32000000: global: x2=0x0001117c
32000000: global: x3=0x000111c1
32000000: global: x4=0xffffffab
32000000: global: x5=0x00000010
32000000: global: x6=0x00000000
32000000: global: x7=0x00000000
32000000: global: x8=0x000111bd
32000000: global: x9=0x7f800000
32000000: global: x10=0x00000000
32000000: global: x11=0x000111bc
32000000: global: x12=0x00000000
32000000: global: x13=0x00000000
32000000: global: x14=0x00000000
32000000: global: x15=0x00000000
32000000: global: x16=0x00000000
32000000: global: x17=0x00000000
32000000: global: x18=0x00000000
32000000: global: x19=0x00000000
32000000: global: x20=0x00000000
32000000: global: x21=0x00000000
32000000: global: x22=0x00000000
32000000: global: x23=0x00000000
32000000: global: x24=0x00000000
32000000: global: x25=0x00000000
32000000: global: x26=0x00000000
32000000: global: x27=0x00000000
32000000: global: x28=0x00000000
32000000: global: x29=0x00000000
32000000: global: x30=0x00000000
32000000: global: x31=0x00000000
32000000: global: f0=0x00000000
32000000: global: f1=0x4019999a
32000000: global: f2=0x00000000
32000000: global: f3=0xc2aa0000
32000000: global: f4=0x00000000
32000000: global: f5=0x00000000
32000000: global: f6=0x00000000
32000000: global: f7=0x00000000
32000000: global: f8=0x00000000
32000000: global: f9=0x00000000
32000000: global: f10=0x00000000
32000000: global: f11=0x00000000
32000000: global: f12=0x00000000
32000000: global: f13=0x00000000
32000000: global: f14=0x00000000
32000000: global: f15=0x00000000
32000000: global: f16=0x00000000
32000000: global: f17=0x00000000
32000000: global: f18=0x00000000
32000000: global: f19=0x00000000
32000000: global: f20=0x00000000
32000000: global: f21=0x00000000
32000000: global: f22=0x00000000
32000000: global: f23=0x00000000
32000000: global: f24=0x00000000
32000000: global: f25=0x00000000
32000000: global: f26=0x00000000
32000000: global: f27=0x00000000
32000000: global: f28=0x00000000
32000000: global: f29=0x00000000
32000000: global: f30=0x00000000
32000000: global: f31=0x00000000
32000000: system.cpu.memory: Log4GUI: memory: 32000000: 0: 100e4: fmv_w_x f5, x0
32000000: system.cpu.decode: Log4GUI: decode: 32000000: 1: 100f0: flw f1, 0(x12)
32000000: system.cpu.fetch1: Log4GUI: fetch1: 32000000: 1: 100f4: <assembly>
33000000: system.cpu.writeback: Log4GUI: writeback: 33000000: 0: 100e4: fmv_w_x f5, x0
33000000: system.cpu.writeback: REGISTERS
33000000: global: x0=0x00000000
33000000: global: x1=0x0001113c
33000000: global: x2=0x0001117c
33000000: global: x3=0x000111c1
33000000: global: x4=0xffffffab
33000000: global: x5=0x00000010
33000000: global: x6=0x00000000
33000000: global: x7=0x00000000
33000000: global: x8=0x000111bd
33000000: global: x9=0x7f800000
33000000: global: x10=0x00000000
33000000: global: x11=0x000111bc
33000000: global: x12=0x00000000
33000000: global: x13=0x00000000
33000000: global: x14=0x00000000
33000000: global: x15=0x00000000
33000000: global: x16=0x00000000
33000000: global: x17=0x00000000
33000000: global: x18=0x00000000
33000000: global: x19=0x00000000
33000000: global: x20=0x00000000
33000000: global: x21=0x00000000
33000000: global: x22=0x00000000
33000000: global: x23=0x00000000
33000000: global: x24=0x00000000
33000000: global: x25=0x00000000
33000000: global: x26=0x00000000
33000000: global: x27=0x00000000
33000000: global: x28=0x00000000
33000000: global: x29=0x00000000
33000000: global: x30=0x00000000
33000000: global: x31=0x00000000
33000000: global: f0=0x00000000
33000000: global: f1=0x4019999a
33000000: global: f2=0x00000000
33000000: global: f3=0xc2aa0000
33000000: global: f4=0x00000000
33000000: global: f5=0x00000000
33000000: global: f6=0x00000000
33000000: global: f7=0x00000000
33000000: global: f8=0x00000000
33000000: global: f9=0x00000000
33000000: global: f10=0x00000000
33000000: global: f11=0x00000000
33000000: global: f12=0x00000000
33000000: global: f13=0x00000000
33000000: global: f14=0x00000000
33000000: global: f15=0x00000000
33000000: global: f16=0x00000000
33000000: global: f17=0x00000000
33000000: global: f18=0x00000000
33000000: global: f19=0x00000000
33000000: global: f20=0x00000000
33000000: global: f21=0x00000000
33000000: global: f22=0x00000000
33000000: global: f23=0x00000000
33000000: global: f24=0x00000000
33000000: global: f25=0x00000000
33000000: global: f26=0x00000000
33000000: global: f27=0x00000000
33000000: global: f28=0x00000000
33000000: global: f29=0x00000000
33000000: global: f30=0x00000000
33000000: global: f31=0x00000000
33000000: system.cpu.memory: Log4GUI: memory: 33000000: 0: 100ec: add x12, x1, x7
33000000: system.cpu.execute: Log4GUI: execute: 33000000: 0: 100f0: flw f1, 0(x12): 0
33000000: system.cpu.decode: Log4GUI: decode: 33000000: 0: 100f4: add x12, x2, x7
33000000: system.cpu.fetch1: Log4GUI: fetch1: 33000000: 0: 100f8: <assembly>
34000000: system.cpu.writeback: Log4GUI: writeback: 34000000: 0: 100ec: add x12, x1, x7
34000000: system.cpu.writeback: REGISTERS
34000000: global: x0=0x00000000
34000000: global: x1=0x0001113c
34000000: global: x2=0x0001117c
34000000: global: x3=0x000111c1
34000000: global: x4=0xffffffab
34000000: global: x5=0x00000010
34000000: global: x6=0x00000000
34000000: global: x7=0x00000000
34000000: global: x8=0x000111bd
34000000: global: x9=0x7f800000
34000000: global: x10=0x00000000
34000000: global: x11=0x000111bc
34000000: global: x12=0x0001113c
34000000: global: x13=0x00000000
34000000: global: x14=0x00000000
34000000: global: x15=0x00000000
34000000: global: x16=0x00000000
34000000: global: x17=0x00000000
34000000: global: x18=0x00000000
34000000: global: x19=0x00000000
34000000: global: x20=0x00000000
34000000: global: x21=0x00000000
34000000: global: x22=0x00000000
34000000: global: x23=0x00000000
34000000: global: x24=0x00000000
34000000: global: x25=0x00000000
34000000: global: x26=0x00000000
34000000: global: x27=0x00000000
34000000: global: x28=0x00000000
34000000: global: x29=0x00000000
34000000: global: x30=0x00000000
34000000: global: x31=0x00000000
34000000: global: f0=0x00000000
34000000: global: f1=0x4019999a
34000000: global: f2=0x00000000
34000000: global: f3=0xc2aa0000
34000000: global: f4=0x00000000
34000000: global: f5=0x00000000
34000000: global: f6=0x00000000
34000000: global: f7=0x00000000
34000000: global: f8=0x00000000
34000000: global: f9=0x00000000
34000000: global: f10=0x00000000
34000000: global: f11=0x00000000
34000000: global: f12=0x00000000
34000000: global: f13=0x00000000
34000000: global: f14=0x00000000
34000000: global: f15=0x00000000
34000000: global: f16=0x00000000
34000000: global: f17=0x00000000
34000000: global: f18=0x00000000
34000000: global: f19=0x00000000
34000000: global: f20=0x00000000
34000000: global: f21=0x00000000
34000000: global: f22=0x00000000
34000000: global: f23=0x00000000
34000000: global: f24=0x00000000
34000000: global: f25=0x00000000
34000000: global: f26=0x00000000
34000000: global: f27=0x00000000
34000000: global: f28=0x00000000
34000000: global: f29=0x00000000
34000000: global: f30=0x00000000
34000000: global: f31=0x00000000
34000000: system.cpu.memory: Log4GUI: memory: 34000000: 0: 100f0: flw f1, 0(x12)
34000000: system.cpu.execute: Log4GUI: execute: 34000000: 0: 100f4: add x12, x2, x7: 0
34000000: system.cpu.decode: Log4GUI: decode: 34000000: 0: 100f8: flw f2, 0(x12)
34000000: system.cpu.fetch1: Log4GUI: fetch1: 34000000: 0: 100fc: <assembly>
35000000: system.cpu.writeback: Log4GUI: writeback: 35000000: 0: 100f0: flw f1, 0(x12)
35000000: system.cpu.writeback: REGISTERS
35000000: global: x0=0x00000000
35000000: global: x1=0x0001113c
35000000: global: x2=0x0001117c
35000000: global: x3=0x000111c1
35000000: global: x4=0xffffffab
35000000: global: x5=0x00000010
35000000: global: x6=0x00000000
35000000: global: x7=0x00000000
35000000: global: x8=0x000111bd
35000000: global: x9=0x7f800000
35000000: global: x10=0x00000000
35000000: global: x11=0x000111bc
35000000: global: x12=0x0001113c
35000000: global: x13=0x00000000
35000000: global: x14=0x00000000
35000000: global: x15=0x00000000
35000000: global: x16=0x00000000
35000000: global: x17=0x00000000
35000000: global: x18=0x00000000
35000000: global: x19=0x00000000
35000000: global: x20=0x00000000
35000000: global: x21=0x00000000
35000000: global: x22=0x00000000
35000000: global: x23=0x00000000
35000000: global: x24=0x00000000
35000000: global: x25=0x00000000
35000000: global: x26=0x00000000
35000000: global: x27=0x00000000
35000000: global: x28=0x00000000
35000000: global: x29=0x00000000
35000000: global: x30=0x00000000
35000000: global: x31=0x00000000
35000000: global: f0=0x00000000
35000000: global: f1=0x40933333
35000000: global: f2=0x00000000
35000000: global: f3=0xc2aa0000
35000000: global: f4=0x00000000
35000000: global: f5=0x00000000
35000000: global: f6=0x00000000
35000000: global: f7=0x00000000
35000000: global: f8=0x00000000
35000000: global: f9=0x00000000
35000000: global: f10=0x00000000
35000000: global: f11=0x00000000
35000000: global: f12=0x00000000
35000000: global: f13=0x00000000
35000000: global: f14=0x00000000
35000000: global: f15=0x00000000
35000000: global: f16=0x00000000
35000000: global: f17=0x00000000
35000000: global: f18=0x00000000
35000000: global: f19=0x00000000
35000000: global: f20=0x00000000
35000000: global: f21=0x00000000
35000000: global: f22=0x00000000
35000000: global: f23=0x00000000
35000000: global: f24=0x00000000
35000000: global: f25=0x00000000
35000000: global: f26=0x00000000
35000000: global: f27=0x00000000
35000000: global: f28=0x00000000
35000000: global: f29=0x00000000
35000000: global: f30=0x00000000
35000000: global: f31=0x00000000
35000000: system.cpu.memory: Log4GUI: memory: 35000000: 0: 100f4: add x12, x2, x7
35000000: system.cpu.execute: Log4GUI: execute: 35000000: 0: 100f8: flw f2, 0(x12): 0
35000000: system.cpu.decode: Log4GUI: decode: 35000000: 0: 100fc: addi x6, x6, 1
35000000: system.cpu.fetch1: Log4GUI: fetch1: 35000000: 0: 10100: <assembly>
36000000: system.cpu.writeback: Log4GUI: writeback: 36000000: 0: 100f4: add x12, x2, x7
36000000: system.cpu.writeback: REGISTERS
36000000: global: x0=0x00000000
36000000: global: x1=0x0001113c
36000000: global: x2=0x0001117c
36000000: global: x3=0x000111c1
36000000: global: x4=0xffffffab
36000000: global: x5=0x00000010
36000000: global: x6=0x00000000
36000000: global: x7=0x00000000
36000000: global: x8=0x000111bd
36000000: global: x9=0x7f800000
36000000: global: x10=0x00000000
36000000: global: x11=0x000111bc
36000000: global: x12=0x0001117c
36000000: global: x13=0x00000000
36000000: global: x14=0x00000000
36000000: global: x15=0x00000000
36000000: global: x16=0x00000000
36000000: global: x17=0x00000000
36000000: global: x18=0x00000000
36000000: global: x19=0x00000000
36000000: global: x20=0x00000000
36000000: global: x21=0x00000000
36000000: global: x22=0x00000000
36000000: global: x23=0x00000000
36000000: global: x24=0x00000000
36000000: global: x25=0x00000000
36000000: global: x26=0x00000000
36000000: global: x27=0x00000000
36000000: global: x28=0x00000000
36000000: global: x29=0x00000000
36000000: global: x30=0x00000000
36000000: global: x31=0x00000000
36000000: global: f0=0x00000000
36000000: global: f1=0x40933333
36000000: global: f2=0x00000000
36000000: global: f3=0xc2aa0000
36000000: global: f4=0x00000000
36000000: global: f5=0x00000000
36000000: global: f6=0x00000000
36000000: global: f7=0x00000000
36000000: global: f8=0x00000000
36000000: global: f9=0x00000000
36000000: global: f10=0x00000000
36000000: global: f11=0x00000000
36000000: global: f12=0x00000000
36000000: global: f13=0x00000000
36000000: global: f14=0x00000000
36000000: global: f15=0x00000000
36000000: global: f16=0x00000000
36000000: global: f17=0x00000000
36000000: global: f18=0x00000000
36000000: global: f19=0x00000000
36000000: global: f20=0x00000000
36000000: global: f21=0x00000000
36000000: global: f22=0x00000000
36000000: global: f23=0x00000000
36000000: global: f24=0x00000000
36000000: global: f25=0x00000000
36000000: global: f26=0x00000000
36000000: global: f27=0x00000000
36000000: global: f28=0x00000000
36000000: global: f29=0x00000000
36000000: global: f30=0x00000000
36000000: global: f31=0x00000000
36000000: system.cpu.memory: Log4GUI: memory: 36000000: 0: 100f8: flw f2, 0(x12)
36000000: system.cpu.execute: Log4GUI: execute: 36000000: 0: 100fc: addi x6, x6, 1: 0
36000000: system.cpu.decode: Log4GUI: decode: 36000000: 0: 10100: fmul_s f4, f1, f2
36000000: system.cpu.fetch1: Log4GUI: fetch1: 36000000: 0: 10104: <assembly>
37000000: system.cpu.writeback: Log4GUI: writeback: 37000000: 0: 100f8: flw f2, 0(x12)
37000000: system.cpu.writeback: REGISTERS
37000000: global: x0=0x00000000
37000000: global: x1=0x0001113c
37000000: global: x2=0x0001117c
37000000: global: x3=0x000111c1
37000000: global: x4=0xffffffab
37000000: global: x5=0x00000010
37000000: global: x6=0x00000000
37000000: global: x7=0x00000000
37000000: global: x8=0x000111bd
37000000: global: x9=0x7f800000
37000000: global: x10=0x00000000
37000000: global: x11=0x000111bc
37000000: global: x12=0x0001117c
37000000: global: x13=0x00000000
37000000: global: x14=0x00000000
37000000: global: x15=0x00000000
37000000: global: x16=0x00000000
37000000: global: x17=0x00000000
37000000: global: x18=0x00000000
37000000: global: x19=0x00000000
37000000: global: x20=0x00000000
37000000: global: x21=0x00000000
37000000: global: x22=0x00000000
37000000: global: x23=0x00000000
37000000: global: x24=0x00000000
37000000: global: x25=0x00000000
37000000: global: x26=0x00000000
37000000: global: x27=0x00000000
37000000: global: x28=0x00000000
37000000: global: x29=0x00000000
37000000: global: x30=0x00000000
37000000: global: x31=0x00000000
37000000: global: f0=0x00000000
37000000: global: f1=0x40933333
37000000: global: f2=0x4019999a
37000000: global: f3=0xc2aa0000
37000000: global: f4=0x00000000
37000000: global: f5=0x00000000
37000000: global: f6=0x00000000
37000000: global: f7=0x00000000
37000000: global: f8=0x00000000
37000000: global: f9=0x00000000
37000000: global: f10=0x00000000
37000000: global: f11=0x00000000
37000000: global: f12=0x00000000
37000000: global: f13=0x00000000
37000000: global: f14=0x00000000
37000000: global: f15=0x00000000
37000000: global: f16=0x00000000
37000000: global: f17=0x00000000
37000000: global: f18=0x00000000
37000000: global: f19=0x00000000
37000000: global: f20=0x00000000
37000000: global: f21=0x00000000
37000000: global: f22=0x00000000
37000000: global: f23=0x00000000
37000000: global: f24=0x00000000
37000000: global: f25=0x00000000
37000000: global: f26=0x00000000
37000000: global: f27=0x00000000
37000000: global: f28=0x00000000
37000000: global: f29=0x00000000
37000000: global: f30=0x00000000
37000000: global: f31=0x00000000
37000000: system.cpu.memory: Log4GUI: memory: 37000000: 0: 100fc: addi x6, x6, 1
37000000: system.cpu.execute: Log4GUI: execute: 37000000: 0: 10100: fmul_s f4, f1, f2: 4
37000000: system.cpu.decode: Log4GUI: decode: 37000000: 0: 10104: slli x7, x6, 2
37000000: system.cpu.fetch1: Log4GUI: fetch1: 37000000: 0: 10108: <assembly>
38000000: system.cpu.writeback: Log4GUI: writeback: 38000000: 0: 100fc: addi x6, x6, 1
38000000: system.cpu.writeback: REGISTERS
38000000: global: x0=0x00000000
38000000: global: x1=0x0001113c
38000000: global: x2=0x0001117c
38000000: global: x3=0x000111c1
38000000: global: x4=0xffffffab
38000000: global: x5=0x00000010
38000000: global: x6=0x00000001
38000000: global: x7=0x00000000
38000000: global: x8=0x000111bd
38000000: global: x9=0x7f800000
38000000: global: x10=0x00000000
38000000: global: x11=0x000111bc
38000000: global: x12=0x0001117c
38000000: global: x13=0x00000000
38000000: global: x14=0x00000000
38000000: global: x15=0x00000000
38000000: global: x16=0x00000000
38000000: global: x17=0x00000000
38000000: global: x18=0x00000000
38000000: global: x19=0x00000000
38000000: global: x20=0x00000000
38000000: global: x21=0x00000000
38000000: global: x22=0x00000000
38000000: global: x23=0x00000000
38000000: global: x24=0x00000000
38000000: global: x25=0x00000000
38000000: global: x26=0x00000000
38000000: global: x27=0x00000000
38000000: global: x28=0x00000000
38000000: global: x29=0x00000000
38000000: global: x30=0x00000000
38000000: global: x31=0x00000000
38000000: global: f0=0x00000000
38000000: global: f1=0x40933333
38000000: global: f2=0x4019999a
38000000: global: f3=0xc2aa0000
38000000: global: f4=0x00000000
38000000: global: f5=0x00000000
38000000: global: f6=0x00000000
38000000: global: f7=0x00000000
38000000: global: f8=0x00000000
38000000: global: f9=0x00000000
38000000: global: f10=0x00000000
38000000: global: f11=0x00000000
38000000: global: f12=0x00000000
38000000: global: f13=0x00000000
38000000: global: f14=0x00000000
38000000: global: f15=0x00000000
38000000: global: f16=0x00000000
38000000: global: f17=0x00000000
38000000: global: f18=0x00000000
38000000: global: f19=0x00000000
38000000: global: f20=0x00000000
38000000: global: f21=0x00000000
38000000: global: f22=0x00000000
38000000: global: f23=0x00000000
38000000: global: f24=0x00000000
38000000: global: f25=0x00000000
38000000: global: f26=0x00000000
38000000: global: f27=0x00000000
38000000: global: f28=0x00000000
38000000: global: f29=0x00000000
38000000: global: f30=0x00000000
38000000: global: f31=0x00000000
38000000: system.cpu.execute: Log4GUI: execute: 38000000: 0: 10104: slli x7, x6, 2: 0
38000000: system.cpu.execute: Log4GUI: execute: 38000000: 0: 10100: fmul_s f4, f1, f2: 4
38000000: system.cpu.decode: Log4GUI: decode: 38000000: 0: 10108: fadd_s f5, f4, f5
38000000: system.cpu.fetch1: Log4GUI: fetch1: 38000000: 0: 1010c: <assembly>
39000000: system.cpu.memory: Log4GUI: memory: 39000000: 0: 10104: slli x7, x6, 2
39000000: system.cpu.execute: Log4GUI: execute: 39000000: 0: 10100: fmul_s f4, f1, f2: 4
39000000: system.cpu.decode: Log4GUI: decode: 39000000: 1: 10108: fadd_s f5, f4, f5
39000000: system.cpu.fetch1: Log4GUI: fetch1: 39000000: 1: 1010c: <assembly>
40000000: system.cpu.writeback: Log4GUI: writeback: 40000000: 0: 10104: slli x7, x6, 2
40000000: system.cpu.writeback: REGISTERS
40000000: global: x0=0x00000000
40000000: global: x1=0x0001113c
40000000: global: x2=0x0001117c
40000000: global: x3=0x000111c1
40000000: global: x4=0xffffffab
40000000: global: x5=0x00000010
40000000: global: x6=0x00000001
40000000: global: x7=0x00000004
40000000: global: x8=0x000111bd
40000000: global: x9=0x7f800000
40000000: global: x10=0x00000000
40000000: global: x11=0x000111bc
40000000: global: x12=0x0001117c
40000000: global: x13=0x00000000
40000000: global: x14=0x00000000
40000000: global: x15=0x00000000
40000000: global: x16=0x00000000
40000000: global: x17=0x00000000
40000000: global: x18=0x00000000
40000000: global: x19=0x00000000
40000000: global: x20=0x00000000
40000000: global: x21=0x00000000
40000000: global: x22=0x00000000
40000000: global: x23=0x00000000
40000000: global: x24=0x00000000
40000000: global: x25=0x00000000
40000000: global: x26=0x00000000
40000000: global: x27=0x00000000
40000000: global: x28=0x00000000
40000000: global: x29=0x00000000
40000000: global: x30=0x00000000
40000000: global: x31=0x00000000
40000000: global: f0=0x00000000
40000000: global: f1=0x40933333
40000000: global: f2=0x4019999a
40000000: global: f3=0xc2aa0000
40000000: global: f4=0x00000000
40000000: global: f5=0x00000000
40000000: global: f6=0x00000000
40000000: global: f7=0x00000000
40000000: global: f8=0x00000000
40000000: global: f9=0x00000000
40000000: global: f10=0x00000000
40000000: global: f11=0x00000000
40000000: global: f12=0x00000000
40000000: global: f13=0x00000000
40000000: global: f14=0x00000000
40000000: global: f15=0x00000000
40000000: global: f16=0x00000000
40000000: global: f17=0x00000000
40000000: global: f18=0x00000000
40000000: global: f19=0x00000000
40000000: global: f20=0x00000000
40000000: global: f21=0x00000000
40000000: global: f22=0x00000000
40000000: global: f23=0x00000000
40000000: global: f24=0x00000000
40000000: global: f25=0x00000000
40000000: global: f26=0x00000000
40000000: global: f27=0x00000000
40000000: global: f28=0x00000000
40000000: global: f29=0x00000000
40000000: global: f30=0x00000000
40000000: global: f31=0x00000000
40000000: system.cpu.execute: Log4GUI: execute: 40000000: 0: 10100: fmul_s f4, f1, f2: 4
40000000: system.cpu.decode: Log4GUI: decode: 40000000: 1: 10108: fadd_s f5, f4, f5
40000000: system.cpu.fetch1: Log4GUI: fetch1: 40000000: 1: 1010c: <assembly>
41000000: system.cpu.execute: Log4GUI: execute: 41000000: 0: 10100: fmul_s f4, f1, f2: 4
41000000: system.cpu.decode: Log4GUI: decode: 41000000: 1: 10108: fadd_s f5, f4, f5
41000000: system.cpu.fetch1: Log4GUI: fetch1: 41000000: 1: 1010c: <assembly>
42000000: system.cpu.execute: Log4GUI: execute: 42000000: 0: 10100: fmul_s f4, f1, f2: 4
42000000: system.cpu.decode: Log4GUI: decode: 42000000: 1: 10108: fadd_s f5, f4, f5
42000000: system.cpu.fetch1: Log4GUI: fetch1: 42000000: 1: 1010c: <assembly>
43000000: system.cpu.execute: Log4GUI: execute: 43000000: 0: 10100: fmul_s f4, f1, f2: 4
43000000: system.cpu.decode: Log4GUI: decode: 43000000: 1: 10108: fadd_s f5, f4, f5
43000000: system.cpu.fetch1: Log4GUI: fetch1: 43000000: 1: 1010c: <assembly>
44000000: system.cpu.execute: Log4GUI: execute: 44000000: 0: 10100: fmul_s f4, f1, f2: 4
44000000: system.cpu.decode: Log4GUI: decode: 44000000: 1: 10108: fadd_s f5, f4, f5
44000000: system.cpu.fetch1: Log4GUI: fetch1: 44000000: 1: 1010c: <assembly>
45000000: system.cpu.memory: Log4GUI: memory: 45000000: 0: 10100: fmul_s f4, f1, f2
45000000: system.cpu.execute: Log4GUI: execute: 45000000: 0: 10108: fadd_s f5, f4, f5: 3
45000000: system.cpu.decode: Log4GUI: decode: 45000000: 0: 1010c: jal x0, -36
45000000: system.cpu.fetch1: Log4GUI: fetch1: 45000000: 0: 10110: <assembly>
46000000: system.cpu.writeback: Log4GUI: writeback: 46000000: 0: 10100: fmul_s f4, f1, f2
46000000: system.cpu.writeback: REGISTERS
46000000: global: x0=0x00000000
46000000: global: x1=0x0001113c
46000000: global: x2=0x0001117c
46000000: global: x3=0x000111c1
46000000: global: x4=0xffffffab
46000000: global: x5=0x00000010
46000000: global: x6=0x00000001
46000000: global: x7=0x00000004
46000000: global: x8=0x000111bd
46000000: global: x9=0x7f800000
46000000: global: x10=0x00000000
46000000: global: x11=0x000111bc
46000000: global: x12=0x0001117c
46000000: global: x13=0x00000000
46000000: global: x14=0x00000000
46000000: global: x15=0x00000000
46000000: global: x16=0x00000000
46000000: global: x17=0x00000000
46000000: global: x18=0x00000000
46000000: global: x19=0x00000000
46000000: global: x20=0x00000000
46000000: global: x21=0x00000000
46000000: global: x22=0x00000000
46000000: global: x23=0x00000000
46000000: global: x24=0x00000000
46000000: global: x25=0x00000000
46000000: global: x26=0x00000000
46000000: global: x27=0x00000000
46000000: global: x28=0x00000000
46000000: global: x29=0x00000000
46000000: global: x30=0x00000000
46000000: global: x31=0x00000000
46000000: global: f0=0x00000000
46000000: global: f1=0x40933333
46000000: global: f2=0x4019999a
46000000: global: f3=0xc2aa0000
46000000: global: f4=0x4130a3d7
46000000: global: f5=0x00000000
46000000: global: f6=0x00000000
46000000: global: f7=0x00000000
46000000: global: f8=0x00000000
46000000: global: f9=0x00000000
46000000: global: f10=0x00000000
46000000: global: f11=0x00000000
46000000: global: f12=0x00000000
46000000: global: f13=0x00000000
46000000: global: f14=0x00000000
46000000: global: f15=0x00000000
46000000: global: f16=0x00000000
46000000: global: f17=0x00000000
46000000: global: f18=0x00000000
46000000: global: f19=0x00000000
46000000: global: f20=0x00000000
46000000: global: f21=0x00000000
46000000: global: f22=0x00000000
46000000: global: f23=0x00000000
46000000: global: f24=0x00000000
46000000: global: f25=0x00000000
46000000: global: f26=0x00000000
46000000: global: f27=0x00000000
46000000: global: f28=0x00000000
46000000: global: f29=0x00000000
46000000: global: f30=0x00000000
46000000: global: f31=0x00000000
46000000: system.cpu.execute: Log4GUI: execute: 46000000: 0: 1010c: jal x0, -36: 0
46000000: system.cpu.execute: Log4GUI: execute: 46000000: 0: 10108: fadd_s f5, f4, f5: 3
46000000: system.cpu.fetch1: Log4GUI: fetch1: 46000000: 0: 100e8: <assembly>
47000000: system.cpu.memory: Log4GUI: memory: 47000000: 0: 1010c: jal x0, -36
47000000: system.cpu.execute: Log4GUI: execute: 47000000: 0: 10108: fadd_s f5, f4, f5: 3
47000000: system.cpu.decode: Log4GUI: decode: 47000000: 0: 100e8: beq x6, x5, 40
47000000: system.cpu.fetch1: Log4GUI: fetch1: 47000000: 0: 100ec: <assembly>
48000000: system.cpu.writeback: Log4GUI: writeback: 48000000: 0: 1010c: jal x0, -36
48000000: system.cpu.writeback: REGISTERS
48000000: global: x0=0x00000000
48000000: global: x1=0x0001113c
48000000: global: x2=0x0001117c
48000000: global: x3=0x000111c1
48000000: global: x4=0xffffffab
48000000: global: x5=0x00000010
48000000: global: x6=0x00000001
48000000: global: x7=0x00000004
48000000: global: x8=0x000111bd
48000000: global: x9=0x7f800000
48000000: global: x10=0x00000000
48000000: global: x11=0x000111bc
48000000: global: x12=0x0001117c
48000000: global: x13=0x00000000
48000000: global: x14=0x00000000
48000000: global: x15=0x00000000
48000000: global: x16=0x00000000
48000000: global: x17=0x00000000
48000000: global: x18=0x00000000
48000000: global: x19=0x00000000
48000000: global: x20=0x00000000
48000000: global: x21=0x00000000
48000000: global: x22=0x00000000
48000000: global: x23=0x00000000
48000000: global: x24=0x00000000
48000000: global: x25=0x00000000
48000000: global: x26=0x00000000
48000000: global: x27=0x00000000
48000000: global: x28=0x00000000
48000000: global: x29=0x00000000
48000000: global: x30=0x00000000
48000000: global: x31=0x00000000
48000000: global: f0=0x00000000
48000000: global: f1=0x40933333
48000000: global: f2=0x4019999a
48000000: global: f3=0xc2aa0000
48000000: global: f4=0x4130a3d7
48000000: global: f5=0x00000000
48000000: global: f6=0x00000000
48000000: global: f7=0x00000000
48000000: global: f8=0x00000000
48000000: global: f9=0x00000000
[...]
322000000: system.cpu.fetch1: Log4GUI: fetch1: 322000000: 1: 10118: <assembly>
323000000: system.cpu.execute: Log4GUI: execute: 323000000: 0: 10110: fadd_s f4, f3, f4: 3
323000000: system.cpu.decode: Log4GUI: decode: 323000000: 1: 10114: fmv_x_w x10, f4
323000000: system.cpu.fetch1: Log4GUI: fetch1: 323000000: 1: 10118: <assembly>
324000000: system.cpu.memory: Log4GUI: memory: 324000000: 0: 10110: fadd_s f4, f3, f4
324000000: system.cpu.execute: Log4GUI: execute: 324000000: 0: 10114: fmv_x_w x10, f4: 3
324000000: system.cpu.decode: Log4GUI: decode: 324000000: 0: 10118: fsw f4, 0(x11)
324000000: system.cpu.fetch1: Log4GUI: fetch1: 324000000: 0: 1011c: <assembly>
325000000: system.cpu.writeback: Log4GUI: writeback: 325000000: 0: 10110: fadd_s f4, f3, f4
325000000: system.cpu.writeback: REGISTERS
325000000: global: x0=0x00000000
325000000: global: x1=0x0001113c
325000000: global: x2=0x0001117c
325000000: global: x3=0x000111c1
325000000: global: x4=0xffffffab
325000000: global: x5=0x00000010
325000000: global: x6=0x00000010
325000000: global: x7=0x00000040
325000000: global: x8=0x000111bd
325000000: global: x9=0x7f800000
325000000: global: x10=0x00000000
325000000: global: x11=0x000111bc
325000000: global: x12=0x000111b8
325000000: global: x13=0x00000000
325000000: global: x14=0x00000000
325000000: global: x15=0x00000000
325000000: global: x16=0x00000000
325000000: global: x17=0x00000000
325000000: global: x18=0x00000000
325000000: global: x19=0x00000000
325000000: global: x20=0x00000000
325000000: global: x21=0x00000000
325000000: global: x22=0x00000000
325000000: global: x23=0x00000000
325000000: global: x24=0x00000000
325000000: global: x25=0x00000000
325000000: global: x26=0x00000000
325000000: global: x27=0x00000000
325000000: global: x28=0x00000000
325000000: global: x29=0x00000000
325000000: global: x30=0x00000000
325000000: global: x31=0x00000000
325000000: global: f0=0x00000000
325000000: global: f1=0x4101999a
325000000: global: f2=0x3f800000
325000000: global: f3=0xc2aa0000
325000000: global: f4=0xc299cccd
325000000: global: f5=0x43bdf47b
325000000: global: f6=0x00000000
325000000: global: f7=0x00000000
325000000: global: f8=0x00000000
325000000: global: f9=0x00000000
325000000: global: f10=0x00000000
325000000: global: f11=0x00000000
325000000: global: f12=0x00000000
325000000: global: f13=0x00000000
325000000: global: f14=0x00000000
325000000: global: f15=0x00000000
325000000: global: f16=0x00000000
325000000: global: f17=0x00000000
325000000: global: f18=0x00000000
325000000: global: f19=0x00000000
325000000: global: f20=0x00000000
325000000: global: f21=0x00000000
325000000: global: f22=0x00000000
325000000: global: f23=0x00000000
325000000: global: f24=0x00000000
325000000: global: f25=0x00000000
325000000: global: f26=0x00000000
325000000: global: f27=0x00000000
325000000: global: f28=0x00000000
325000000: global: f29=0x00000000
325000000: global: f30=0x00000000
325000000: global: f31=0x00000000
325000000: system.cpu.execute: Log4GUI: execute: 325000000: 0: 10118: fsw f4, 0(x11): 0
325000000: system.cpu.execute: Log4GUI: execute: 325000000: 0: 10114: fmv_x_w x10, f4: 3
325000000: system.cpu.decode: Log4GUI: decode: 325000000: 0: 1011c: and x10, x10, x9
325000000: system.cpu.fetch1: Log4GUI: fetch1: 325000000: 0: 10120: <assembly>
326000000: system.cpu.memory: Log4GUI: memory: 326000000: 0: 10118: fsw f4, 0(x11)
326000000: system.cpu.execute: Log4GUI: execute: 326000000: 0: 10114: fmv_x_w x10, f4: 3
326000000: system.cpu.decode: Log4GUI: decode: 326000000: 1: 1011c: and x10, x10, x9
326000000: system.cpu.fetch1: Log4GUI: fetch1: 326000000: 1: 10120: <assembly>
327000000: system.cpu.writeback: Log4GUI: writeback: 327000000: 0: 10118: fsw f4, 0(x11)
327000000: system.cpu.writeback: REGISTERS
327000000: global: x0=0x00000000
327000000: global: x1=0x0001113c
327000000: global: x2=0x0001117c
327000000: global: x3=0x000111c1
327000000: global: x4=0xffffffab
327000000: global: x5=0x00000010
327000000: global: x6=0x00000010
327000000: global: x7=0x00000040
327000000: global: x8=0x000111bd
327000000: global: x9=0x7f800000
327000000: global: x10=0x00000000
327000000: global: x11=0x000111bc
327000000: global: x12=0x000111b8
327000000: global: x13=0x00000000
327000000: global: x14=0x00000000
327000000: global: x15=0x00000000
327000000: global: x16=0x00000000
327000000: global: x17=0x00000000
327000000: global: x18=0x00000000
327000000: global: x19=0x00000000
327000000: global: x20=0x00000000
327000000: global: x21=0x00000000
327000000: global: x22=0x00000000
327000000: global: x23=0x00000000
327000000: global: x24=0x00000000
327000000: global: x25=0x00000000
327000000: global: x26=0x00000000
327000000: global: x27=0x00000000
327000000: global: x28=0x00000000
327000000: global: x29=0x00000000
327000000: global: x30=0x00000000
327000000: global: x31=0x00000000
327000000: global: f0=0x00000000
327000000: global: f1=0x4101999a
327000000: global: f2=0x3f800000
327000000: global: f3=0xc2aa0000
327000000: global: f4=0xc299cccd
327000000: global: f5=0x43bdf47b
327000000: global: f6=0x00000000
327000000: global: f7=0x00000000
327000000: global: f8=0x00000000
327000000: global: f9=0x00000000
327000000: global: f10=0x00000000
327000000: global: f11=0x00000000
327000000: global: f12=0x00000000
327000000: global: f13=0x00000000
327000000: global: f14=0x00000000
327000000: global: f15=0x00000000
327000000: global: f16=0x00000000
327000000: global: f17=0x00000000
327000000: global: f18=0x00000000
327000000: global: f19=0x00000000
327000000: global: f20=0x00000000
327000000: global: f21=0x00000000
327000000: global: f22=0x00000000
327000000: global: f23=0x00000000
327000000: global: f24=0x00000000
327000000: global: f25=0x00000000
327000000: global: f26=0x00000000
327000000: global: f27=0x00000000
327000000: global: f28=0x00000000
327000000: global: f29=0x00000000
327000000: global: f30=0x00000000
327000000: global: f31=0x00000000
327000000: system.cpu.execute: Log4GUI: execute: 327000000: 0: 10114: fmv_x_w x10, f4: 3
327000000: system.cpu.decode: Log4GUI: decode: 327000000: 1: 1011c: and x10, x10, x9
327000000: system.cpu.fetch1: Log4GUI: fetch1: 327000000: 1: 10120: <assembly>
328000000: system.cpu.memory: Log4GUI: memory: 328000000: 0: 10114: fmv_x_w x10, f4
328000000: system.cpu.execute: Log4GUI: execute: 328000000: 0: 1011c: and x10, x10, x9: 0
328000000: system.cpu.decode: Log4GUI: decode: 328000000: 0: 10120: beq x10, x9, 8
328000000: system.cpu.fetch1: Log4GUI: fetch1: 328000000: 0: 10124: <assembly>
329000000: system.cpu.writeback: Log4GUI: writeback: 329000000: 0: 10114: fmv_x_w x10, f4
329000000: system.cpu.writeback: REGISTERS
329000000: global: x0=0x00000000
329000000: global: x1=0x0001113c
329000000: global: x2=0x0001117c
329000000: global: x3=0x000111c1
329000000: global: x4=0xffffffab
329000000: global: x5=0x00000010
329000000: global: x6=0x00000010
329000000: global: x7=0x00000040
329000000: global: x8=0x000111bd
329000000: global: x9=0x7f800000
329000000: global: x10=0xc299cccd
329000000: global: x11=0x000111bc
329000000: global: x12=0x000111b8
329000000: global: x13=0x00000000
329000000: global: x14=0x00000000
329000000: global: x15=0x00000000
329000000: global: x16=0x00000000
329000000: global: x17=0x00000000
329000000: global: x18=0x00000000
329000000: global: x19=0x00000000
329000000: global: x20=0x00000000
329000000: global: x21=0x00000000
329000000: global: x22=0x00000000
329000000: global: x23=0x00000000
329000000: global: x24=0x00000000
329000000: global: x25=0x00000000
329000000: global: x26=0x00000000
329000000: global: x27=0x00000000
329000000: global: x28=0x00000000
329000000: global: x29=0x00000000
329000000: global: x30=0x00000000
329000000: global: x31=0x00000000
329000000: global: f0=0x00000000
329000000: global: f1=0x4101999a
329000000: global: f2=0x3f800000
329000000: global: f3=0xc2aa0000
329000000: global: f4=0xc299cccd
329000000: global: f5=0x43bdf47b
329000000: global: f6=0x00000000
329000000: global: f7=0x00000000
329000000: global: f8=0x00000000
329000000: global: f9=0x00000000
329000000: global: f10=0x00000000
329000000: global: f11=0x00000000
329000000: global: f12=0x00000000
329000000: global: f13=0x00000000
329000000: global: f14=0x00000000
329000000: global: f15=0x00000000
329000000: global: f16=0x00000000
329000000: global: f17=0x00000000
329000000: global: f18=0x00000000
329000000: global: f19=0x00000000
329000000: global: f20=0x00000000
329000000: global: f21=0x00000000
329000000: global: f22=0x00000000
329000000: global: f23=0x00000000
329000000: global: f24=0x00000000
329000000: global: f25=0x00000000
329000000: global: f26=0x00000000
329000000: global: f27=0x00000000
329000000: global: f28=0x00000000
329000000: global: f29=0x00000000
329000000: global: f30=0x00000000
329000000: global: f31=0x00000000
329000000: system.cpu.memory: Log4GUI: memory: 329000000: 0: 1011c: and x10, x10, x9
329000000: system.cpu.decode: Log4GUI: decode: 329000000: 1: 10120: beq x10, x9, 8
329000000: system.cpu.fetch1: Log4GUI: fetch1: 329000000: 1: 10124: <assembly>
330000000: system.cpu.writeback: Log4GUI: writeback: 330000000: 0: 1011c: and x10, x10, x9
330000000: system.cpu.writeback: REGISTERS
330000000: global: x0=0x00000000
330000000: global: x1=0x0001113c
330000000: global: x2=0x0001117c
330000000: global: x3=0x000111c1
330000000: global: x4=0xffffffab
330000000: global: x5=0x00000010
330000000: global: x6=0x00000010
330000000: global: x7=0x00000040
330000000: global: x8=0x000111bd
330000000: global: x9=0x7f800000
330000000: global: x10=0x42800000
330000000: global: x11=0x000111bc
330000000: global: x12=0x000111b8
330000000: global: x13=0x00000000
330000000: global: x14=0x00000000
330000000: global: x15=0x00000000
330000000: global: x16=0x00000000
330000000: global: x17=0x00000000
330000000: global: x18=0x00000000
330000000: global: x19=0x00000000
330000000: global: x20=0x00000000
330000000: global: x21=0x00000000
330000000: global: x22=0x00000000
330000000: global: x23=0x00000000
330000000: global: x24=0x00000000
330000000: global: x25=0x00000000
330000000: global: x26=0x00000000
330000000: global: x27=0x00000000
330000000: global: x28=0x00000000
330000000: global: x29=0x00000000
330000000: global: x30=0x00000000
330000000: global: x31=0x00000000
330000000: global: f0=0x00000000
330000000: global: f1=0x4101999a
330000000: global: f2=0x3f800000
330000000: global: f3=0xc2aa0000
330000000: global: f4=0xc299cccd
330000000: global: f5=0x43bdf47b
330000000: global: f6=0x00000000
330000000: global: f7=0x00000000
330000000: global: f8=0x00000000
330000000: global: f9=0x00000000
330000000: global: f10=0x00000000
330000000: global: f11=0x00000000
330000000: global: f12=0x00000000
330000000: global: f13=0x00000000
330000000: global: f14=0x00000000
330000000: global: f15=0x00000000
330000000: global: f16=0x00000000
330000000: global: f17=0x00000000
330000000: global: f18=0x00000000
330000000: global: f19=0x00000000
330000000: global: f20=0x00000000
330000000: global: f21=0x00000000
330000000: global: f22=0x00000000
330000000: global: f23=0x00000000
330000000: global: f24=0x00000000
330000000: global: f25=0x00000000
330000000: global: f26=0x00000000
330000000: global: f27=0x00000000
330000000: global: f28=0x00000000
330000000: global: f29=0x00000000
330000000: global: f30=0x00000000
330000000: global: f31=0x00000000
330000000: system.cpu.execute: Log4GUI: execute: 330000000: 0: 10120: beq x10, x9, 8: 0
330000000: system.cpu.decode: Log4GUI: decode: 330000000: 0: 10124: jal x0, 12
330000000: system.cpu.fetch1: Log4GUI: fetch1: 330000000: 0: 10128: <assembly>
331000000: system.cpu.memory: Log4GUI: memory: 331000000: 0: 10120: beq x10, x9, 8
331000000: system.cpu.execute: Log4GUI: execute: 331000000: 0: 10124: jal x0, 12: 0
331000000: system.cpu.fetch1: Log4GUI: fetch1: 331000000: 0: 10130: <assembly>
332000000: system.cpu.writeback: Log4GUI: writeback: 332000000: 0: 10120: beq x10, x9, 8
332000000: system.cpu.writeback: REGISTERS
332000000: global: x0=0x00000000
332000000: global: x1=0x0001113c
332000000: global: x2=0x0001117c
332000000: global: x3=0x000111c1
332000000: global: x4=0xffffffab
332000000: global: x5=0x00000010
332000000: global: x6=0x00000010
332000000: global: x7=0x00000040
332000000: global: x8=0x000111bd
332000000: global: x9=0x7f800000
332000000: global: x10=0x42800000
332000000: global: x11=0x000111bc
332000000: global: x12=0x000111b8
332000000: global: x13=0x00000000
332000000: global: x14=0x00000000
332000000: global: x15=0x00000000
332000000: global: x16=0x00000000
332000000: global: x17=0x00000000
332000000: global: x18=0x00000000
332000000: global: x19=0x00000000
332000000: global: x20=0x00000000
332000000: global: x21=0x00000000
332000000: global: x22=0x00000000
332000000: global: x23=0x00000000
332000000: global: x24=0x00000000
332000000: global: x25=0x00000000
332000000: global: x26=0x00000000
332000000: global: x27=0x00000000
332000000: global: x28=0x00000000
332000000: global: x29=0x00000000
332000000: global: x30=0x00000000
332000000: global: x31=0x00000000
332000000: global: f0=0x00000000
332000000: global: f1=0x4101999a
332000000: global: f2=0x3f800000
332000000: global: f3=0xc2aa0000
332000000: global: f4=0xc299cccd
332000000: global: f5=0x43bdf47b
332000000: global: f6=0x00000000
332000000: global: f7=0x00000000
332000000: global: f8=0x00000000
332000000: global: f9=0x00000000
332000000: global: f10=0x00000000
332000000: global: f11=0x00000000
332000000: global: f12=0x00000000
332000000: global: f13=0x00000000
332000000: global: f14=0x00000000
332000000: global: f15=0x00000000
332000000: global: f16=0x00000000
332000000: global: f17=0x00000000
332000000: global: f18=0x00000000
332000000: global: f19=0x00000000
332000000: global: f20=0x00000000
332000000: global: f21=0x00000000
332000000: global: f22=0x00000000
332000000: global: f23=0x00000000
332000000: global: f24=0x00000000
332000000: global: f25=0x00000000
332000000: global: f26=0x00000000
332000000: global: f27=0x00000000
332000000: global: f28=0x00000000
332000000: global: f29=0x00000000
332000000: global: f30=0x00000000
332000000: global: f31=0x00000000
332000000: system.cpu.memory: Log4GUI: memory: 332000000: 0: 10124: jal x0, 12
332000000: system.cpu.decode: Log4GUI: decode: 332000000: 0: 10130: addi x10, x0, 0
332000000: system.cpu.fetch1: Log4GUI: fetch1: 332000000: 0: 10134: <assembly>
333000000: system.cpu.writeback: Log4GUI: writeback: 333000000: 0: 10124: jal x0, 12
333000000: system.cpu.writeback: REGISTERS
333000000: global: x0=0x00000000
333000000: global: x1=0x0001113c
333000000: global: x2=0x0001117c
333000000: global: x3=0x000111c1
333000000: global: x4=0xffffffab
333000000: global: x5=0x00000010
333000000: global: x6=0x00000010
333000000: global: x7=0x00000040
333000000: global: x8=0x000111bd
333000000: global: x9=0x7f800000
333000000: global: x10=0x42800000
333000000: global: x11=0x000111bc
333000000: global: x12=0x000111b8
333000000: global: x13=0x00000000
333000000: global: x14=0x00000000
333000000: global: x15=0x00000000
333000000: global: x16=0x00000000
333000000: global: x17=0x00000000
333000000: global: x18=0x00000000
333000000: global: x19=0x00000000
333000000: global: x20=0x00000000
333000000: global: x21=0x00000000
333000000: global: x22=0x00000000
333000000: global: x23=0x00000000
333000000: global: x24=0x00000000
333000000: global: x25=0x00000000
333000000: global: x26=0x00000000
333000000: global: x27=0x00000000
333000000: global: x28=0x00000000
333000000: global: x29=0x00000000
333000000: global: x30=0x00000000
333000000: global: x31=0x00000000
333000000: global: f0=0x00000000
333000000: global: f1=0x4101999a
333000000: global: f2=0x3f800000
333000000: global: f3=0xc2aa0000
333000000: global: f4=0xc299cccd
333000000: global: f5=0x43bdf47b
333000000: global: f6=0x00000000
333000000: global: f7=0x00000000
333000000: global: f8=0x00000000
333000000: global: f9=0x00000000
333000000: global: f10=0x00000000
333000000: global: f11=0x00000000
333000000: global: f12=0x00000000
333000000: global: f13=0x00000000
333000000: global: f14=0x00000000
333000000: global: f15=0x00000000
333000000: global: f16=0x00000000
333000000: global: f17=0x00000000
333000000: global: f18=0x00000000
333000000: global: f19=0x00000000
333000000: global: f20=0x00000000
333000000: global: f21=0x00000000
333000000: global: f22=0x00000000
333000000: global: f23=0x00000000
333000000: global: f24=0x00000000
333000000: global: f25=0x00000000
333000000: global: f26=0x00000000
333000000: global: f27=0x00000000
333000000: global: f28=0x00000000
333000000: global: f29=0x00000000
333000000: global: f30=0x00000000
333000000: global: f31=0x00000000
333000000: system.cpu.execute: Log4GUI: execute: 333000000: 0: 10130: addi x10, x0, 0: 0
333000000: system.cpu.decode: Log4GUI: decode: 333000000: 0: 10134: addi x17, x0, 93
333000000: system.cpu.fetch1: Log4GUI: fetch1: 333000000: 0: 10138: <assembly>
334000000: system.cpu.memory: Log4GUI: memory: 334000000: 0: 10130: addi x10, x0, 0
334000000: system.cpu.execute: Log4GUI: execute: 334000000: 0: 10134: addi x17, x0, 93: 0
334000000: system.cpu.decode: Log4GUI: decode: 334000000: 0: 10138: ecall
334000000: system.cpu.fetch1: Log4GUI: fetch1: 334000000: 0: 1013c: <assembly>
335000000: system.cpu.writeback: Log4GUI: writeback: 335000000: 0: 10130: addi x10, x0, 0
335000000: system.cpu.writeback: REGISTERS
335000000: global: x0=0x00000000
335000000: global: x1=0x0001113c
335000000: global: x2=0x0001117c
335000000: global: x3=0x000111c1
335000000: global: x4=0xffffffab
335000000: global: x5=0x00000010
335000000: global: x6=0x00000010
335000000: global: x7=0x00000040
335000000: global: x8=0x000111bd
335000000: global: x9=0x7f800000
335000000: global: x10=0x00000000
335000000: global: x11=0x000111bc
335000000: global: x12=0x000111b8
335000000: global: x13=0x00000000
335000000: global: x14=0x00000000
335000000: global: x15=0x00000000
335000000: global: x16=0x00000000
335000000: global: x17=0x00000000
335000000: global: x18=0x00000000
335000000: global: x19=0x00000000
335000000: global: x20=0x00000000
335000000: global: x21=0x00000000
335000000: global: x22=0x00000000
335000000: global: x23=0x00000000
335000000: global: x24=0x00000000
335000000: global: x25=0x00000000
335000000: global: x26=0x00000000
335000000: global: x27=0x00000000
335000000: global: x28=0x00000000
335000000: global: x29=0x00000000
335000000: global: x30=0x00000000
335000000: global: x31=0x00000000
335000000: global: f0=0x00000000
335000000: global: f1=0x4101999a
335000000: global: f2=0x3f800000
335000000: global: f3=0xc2aa0000
335000000: global: f4=0xc299cccd
335000000: global: f5=0x43bdf47b
335000000: global: f6=0x00000000
335000000: global: f7=0x00000000
335000000: global: f8=0x00000000
335000000: global: f9=0x00000000
335000000: global: f10=0x00000000
335000000: global: f11=0x00000000
335000000: global: f12=0x00000000
335000000: global: f13=0x00000000
335000000: global: f14=0x00000000
335000000: global: f15=0x00000000
335000000: global: f16=0x00000000
335000000: global: f17=0x00000000
335000000: global: f18=0x00000000
335000000: global: f19=0x00000000
335000000: global: f20=0x00000000
335000000: global: f21=0x00000000
335000000: global: f22=0x00000000
335000000: global: f23=0x00000000
335000000: global: f24=0x00000000
335000000: global: f25=0x00000000
335000000: global: f26=0x00000000
335000000: global: f27=0x00000000
335000000: global: f28=0x00000000
335000000: global: f29=0x00000000
335000000: global: f30=0x00000000
335000000: global: f31=0x00000000
335000000: system.cpu.memory: Log4GUI: memory: 335000000: 0: 10134: addi x17, x0, 93
335000000: system.cpu.execute: Log4GUI: execute: 335000000: 0: 10138: ecall: -1
335000000: system.cpu.decode: Log4GUI: decode: 335000000: 0: 1013c: c_addi4spn x8, x2, 0
335000000: system.cpu.fetch1: Log4GUI: fetch1: 335000000: 0: 1013e: <assembly>
Exiting @ tick 335000000 because exiting with last active thread context
