Global frequency set at 1000000000000 ticks per second
gem5 Simulator System.  https://www.gem5.org
gem5 is copyrighted software; use the --copyright option for details.

gem5 version 22.1.0.0
gem5 compiled Aug 27 2025 16:10:28
gem5 started Oct 30 2025 18:54:53
gem5 executing on vboxuser-VirtualBox, pid 3422
command line: /home/vboxuser/gem5/build/RISCV/gem5.opt --debug-flags=MinorGUI gem5_config.py --cpu-type MinorCPU --caches --l1d_size 8388608 --l1i_size 8388608 --cacheline_size 512 --cpu-clock 1MHz --sys-clock 10GHz -c program_1

**** REAL SIMULATION ****
1000000: system.cpu.fetch1: Log4GUI: fetch1: 1000000: 0: 10094: <assembly>
2000000: system.cpu.fetch1: Log4GUI: fetch1: 2000000: 1: 10094: <assembly>
3000000: system.cpu.fetch1: Log4GUI: fetch1: 3000000: 1: 10094: <assembly>
4000000: system.cpu.fetch1: Log4GUI: fetch1: 4000000: 1: 10094: <assembly>
5000000: system.cpu.decode: Log4GUI: decode: 5000000: 0: 10094: auipc x1, 1
5000000: system.cpu.fetch1: Log4GUI: fetch1: 5000000: 0: 10098: <assembly>
6000000: system.cpu.execute: Log4GUI: execute: 6000000: 0: 10094: auipc x1, 1: 0
6000000: system.cpu.decode: Log4GUI: decode: 6000000: 0: 10098: addi x1, x1, 168
6000000: system.cpu.fetch1: Log4GUI: fetch1: 6000000: 0: 1009c: <assembly>
7000000: system.cpu.memory: Log4GUI: memory: 7000000: 0: 10094: auipc x1, 1
7000000: system.cpu.execute: Log4GUI: execute: 7000000: 0: 10098: addi x1, x1, 168: 0
7000000: system.cpu.decode: Log4GUI: decode: 7000000: 0: 1009c: flw f1, 0(x1)
7000000: system.cpu.fetch1: Log4GUI: fetch1: 7000000: 0: 100a0: <assembly>
8000000: system.cpu.writeback: Log4GUI: writeback: 8000000: 0: 10094: auipc x1, 1
8000000: system.cpu.writeback: REGISTERS
8000000: global: x0=0x00000000
8000000: global: x1=0x00011094
8000000: global: x2=0x7fffff90
8000000: global: x3=0x00000000
8000000: global: x4=0x00000000
8000000: global: x5=0x00000000
8000000: global: x6=0x00000000
8000000: global: x7=0x00000000
8000000: global: x8=0x00000000
8000000: global: x9=0x00000000
8000000: global: x10=0x00000000
8000000: global: x11=0x00000000
8000000: global: x12=0x00000000
8000000: global: x13=0x00000000
8000000: global: x14=0x00000000
8000000: global: x15=0x00000000
8000000: global: x16=0x00000000
8000000: global: x17=0x00000000
8000000: global: x18=0x00000000
8000000: global: x19=0x00000000
8000000: global: x20=0x00000000
8000000: global: x21=0x00000000
8000000: global: x22=0x00000000
8000000: global: x23=0x00000000
8000000: global: x24=0x00000000
8000000: global: x25=0x00000000
8000000: global: x26=0x00000000
8000000: global: x27=0x00000000
8000000: global: x28=0x00000000
8000000: global: x29=0x00000000
8000000: global: x30=0x00000000
8000000: global: x31=0x00000000
8000000: global: f0=0x00000000
8000000: global: f1=0x00000000
8000000: global: f2=0x00000000
8000000: global: f3=0x00000000
8000000: global: f4=0x00000000
8000000: global: f5=0x00000000
8000000: global: f6=0x00000000
8000000: global: f7=0x00000000
8000000: global: f8=0x00000000
8000000: global: f9=0x00000000
8000000: global: f10=0x00000000
8000000: global: f11=0x00000000
8000000: global: f12=0x00000000
8000000: global: f13=0x00000000
8000000: global: f14=0x00000000
8000000: global: f15=0x00000000
8000000: global: f16=0x00000000
8000000: global: f17=0x00000000
8000000: global: f18=0x00000000
8000000: global: f19=0x00000000
8000000: global: f20=0x00000000
8000000: global: f21=0x00000000
8000000: global: f22=0x00000000
8000000: global: f23=0x00000000
8000000: global: f24=0x00000000
8000000: global: f25=0x00000000
8000000: global: f26=0x00000000
8000000: global: f27=0x00000000
8000000: global: f28=0x00000000
8000000: global: f29=0x00000000
8000000: global: f30=0x00000000
8000000: global: f31=0x00000000
8000000: system.cpu.memory: Log4GUI: memory: 8000000: 0: 10098: addi x1, x1, 168
8000000: system.cpu.execute: Log4GUI: execute: 8000000: 0: 1009c: flw f1, 0(x1): 0
8000000: system.cpu.decode: Log4GUI: decode: 8000000: 0: 100a0: auipc x2, 1
8000000: system.cpu.fetch1: Log4GUI: fetch1: 8000000: 0: 100a4: <assembly>
9000000: system.cpu.writeback: Log4GUI: writeback: 9000000: 0: 10098: addi x1, x1, 168
9000000: system.cpu.writeback: REGISTERS
9000000: global: x0=0x00000000
9000000: global: x1=0x0001113c
9000000: global: x2=0x7fffff90
9000000: global: x3=0x00000000
9000000: global: x4=0x00000000
9000000: global: x5=0x00000000
9000000: global: x6=0x00000000
9000000: global: x7=0x00000000
9000000: global: x8=0x00000000
9000000: global: x9=0x00000000
9000000: global: x10=0x00000000
9000000: global: x11=0x00000000
9000000: global: x12=0x00000000
9000000: global: x13=0x00000000
9000000: global: x14=0x00000000
9000000: global: x15=0x00000000
9000000: global: x16=0x00000000
9000000: global: x17=0x00000000
9000000: global: x18=0x00000000
9000000: global: x19=0x00000000
9000000: global: x20=0x00000000
9000000: global: x21=0x00000000
9000000: global: x22=0x00000000
9000000: global: x23=0x00000000
9000000: global: x24=0x00000000
9000000: global: x25=0x00000000
9000000: global: x26=0x00000000
9000000: global: x27=0x00000000
9000000: global: x28=0x00000000
9000000: global: x29=0x00000000
9000000: global: x30=0x00000000
9000000: global: x31=0x00000000
9000000: global: f0=0x00000000
9000000: global: f1=0x00000000
9000000: global: f2=0x00000000
9000000: global: f3=0x00000000
9000000: global: f4=0x00000000
9000000: global: f5=0x00000000
9000000: global: f6=0x00000000
9000000: global: f7=0x00000000
9000000: global: f8=0x00000000
9000000: global: f9=0x00000000
9000000: global: f10=0x00000000
9000000: global: f11=0x00000000
9000000: global: f12=0x00000000
9000000: global: f13=0x00000000
9000000: global: f14=0x00000000
9000000: global: f15=0x00000000
9000000: global: f16=0x00000000
9000000: global: f17=0x00000000
9000000: global: f18=0x00000000
9000000: global: f19=0x00000000
9000000: global: f20=0x00000000
9000000: global: f21=0x00000000
9000000: global: f22=0x00000000
9000000: global: f23=0x00000000
9000000: global: f24=0x00000000
9000000: global: f25=0x00000000
9000000: global: f26=0x00000000
9000000: global: f27=0x00000000
9000000: global: f28=0x00000000
9000000: global: f29=0x00000000
9000000: global: f30=0x00000000
9000000: global: f31=0x00000000
9000000: system.cpu.memory: Log4GUI: memory: 9000000: 0: 1009c: flw f1, 0(x1)
9000000: system.cpu.execute: Log4GUI: execute: 9000000: 0: 100a0: auipc x2, 1: 0
9000000: system.cpu.decode: Log4GUI: decode: 9000000: 0: 100a4: addi x2, x2, 220
9000000: system.cpu.fetch1: Log4GUI: fetch1: 9000000: 0: 100a8: <assembly>
10000000: system.cpu.memory: Log4GUI: memory: 10000000: 1: 1009c: flw f1, 0(x1)
10000000: system.cpu.execute: Log4GUI: execute: 10000000: 1: 100a0: auipc x2, 1: 0
10000000: system.cpu.decode: Log4GUI: decode: 10000000: 1: 100a4: addi x2, x2, 220
10000000: system.cpu.fetch1: Log4GUI: fetch1: 10000000: 1: 100a8: <assembly>
11000000: system.cpu.decode: Log4GUI: decode: 11000000: 1: 100a4: addi x2, x2, 220
11000000: system.cpu.fetch1: Log4GUI: fetch1: 11000000: 1: 100a8: <assembly>
12000000: system.cpu.writeback: Log4GUI: writeback: 12000000: 0: 1009c: flw f1, 0(x1)
12000000: system.cpu.writeback: REGISTERS
12000000: global: x0=0x00000000
12000000: global: x1=0x0001113c
12000000: global: x2=0x7fffff90
12000000: global: x3=0x00000000
12000000: global: x4=0x00000000
12000000: global: x5=0x00000000
12000000: global: x6=0x00000000
12000000: global: x7=0x00000000
12000000: global: x8=0x00000000
12000000: global: x9=0x00000000
12000000: global: x10=0x00000000
12000000: global: x11=0x00000000
12000000: global: x12=0x00000000
12000000: global: x13=0x00000000
12000000: global: x14=0x00000000
12000000: global: x15=0x00000000
12000000: global: x16=0x00000000
12000000: global: x17=0x00000000
12000000: global: x18=0x00000000
12000000: global: x19=0x00000000
12000000: global: x20=0x00000000
12000000: global: x21=0x00000000
12000000: global: x22=0x00000000
12000000: global: x23=0x00000000
12000000: global: x24=0x00000000
12000000: global: x25=0x00000000
12000000: global: x26=0x00000000
12000000: global: x27=0x00000000
12000000: global: x28=0x00000000
12000000: global: x29=0x00000000
12000000: global: x30=0x00000000
12000000: global: x31=0x00000000
12000000: global: f0=0x00000000
12000000: global: f1=0x40933333
12000000: global: f2=0x00000000
12000000: global: f3=0x00000000
12000000: global: f4=0x00000000
12000000: global: f5=0x00000000
12000000: global: f6=0x00000000
12000000: global: f7=0x00000000
12000000: global: f8=0x00000000
12000000: global: f9=0x00000000
12000000: global: f10=0x00000000
12000000: global: f11=0x00000000
12000000: global: f12=0x00000000
12000000: global: f13=0x00000000
12000000: global: f14=0x00000000
12000000: global: f15=0x00000000
12000000: global: f16=0x00000000
12000000: global: f17=0x00000000
12000000: global: f18=0x00000000
12000000: global: f19=0x00000000
12000000: global: f20=0x00000000
12000000: global: f21=0x00000000
12000000: global: f22=0x00000000
12000000: global: f23=0x00000000
12000000: global: f24=0x00000000
12000000: global: f25=0x00000000
12000000: global: f26=0x00000000
12000000: global: f27=0x00000000
12000000: global: f28=0x00000000
12000000: global: f29=0x00000000
12000000: global: f30=0x00000000
12000000: global: f31=0x00000000
12000000: system.cpu.memory: Log4GUI: memory: 12000000: 0: 100a0: auipc x2, 1
12000000: system.cpu.execute: Log4GUI: execute: 12000000: 0: 100a4: addi x2, x2, 220: 0
12000000: system.cpu.decode: Log4GUI: decode: 12000000: 0: 100a8: flw f1, 0(x2)
12000000: system.cpu.fetch1: Log4GUI: fetch1: 12000000: 0: 100ac: <assembly>
13000000: system.cpu.writeback: Log4GUI: writeback: 13000000: 0: 100a0: auipc x2, 1
13000000: system.cpu.writeback: REGISTERS
13000000: global: x0=0x00000000
13000000: global: x1=0x0001113c
13000000: global: x2=0x000110a0
13000000: global: x3=0x00000000
13000000: global: x4=0x00000000
13000000: global: x5=0x00000000
13000000: global: x6=0x00000000
13000000: global: x7=0x00000000
13000000: global: x8=0x00000000
13000000: global: x9=0x00000000
13000000: global: x10=0x00000000
13000000: global: x11=0x00000000
13000000: global: x12=0x00000000
13000000: global: x13=0x00000000
13000000: global: x14=0x00000000
13000000: global: x15=0x00000000
13000000: global: x16=0x00000000
13000000: global: x17=0x00000000
13000000: global: x18=0x00000000
13000000: global: x19=0x00000000
13000000: global: x20=0x00000000
13000000: global: x21=0x00000000
13000000: global: x22=0x00000000
13000000: global: x23=0x00000000
13000000: global: x24=0x00000000
13000000: global: x25=0x00000000
13000000: global: x26=0x00000000
13000000: global: x27=0x00000000
13000000: global: x28=0x00000000
13000000: global: x29=0x00000000
13000000: global: x30=0x00000000
13000000: global: x31=0x00000000
13000000: global: f0=0x00000000
13000000: global: f1=0x40933333
13000000: global: f2=0x00000000
13000000: global: f3=0x00000000
13000000: global: f4=0x00000000
13000000: global: f5=0x00000000
13000000: global: f6=0x00000000
13000000: global: f7=0x00000000
13000000: global: f8=0x00000000
13000000: global: f9=0x00000000
13000000: global: f10=0x00000000
13000000: global: f11=0x00000000
13000000: global: f12=0x00000000
13000000: global: f13=0x00000000
13000000: global: f14=0x00000000
13000000: global: f15=0x00000000
13000000: global: f16=0x00000000
13000000: global: f17=0x00000000
13000000: global: f18=0x00000000
13000000: global: f19=0x00000000
13000000: global: f20=0x00000000
13000000: global: f21=0x00000000
13000000: global: f22=0x00000000
13000000: global: f23=0x00000000
13000000: global: f24=0x00000000
13000000: global: f25=0x00000000
13000000: global: f26=0x00000000
13000000: global: f27=0x00000000
13000000: global: f28=0x00000000
13000000: global: f29=0x00000000
13000000: global: f30=0x00000000
13000000: global: f31=0x00000000
13000000: system.cpu.memory: Log4GUI: memory: 13000000: 0: 100a4: addi x2, x2, 220
13000000: system.cpu.execute: Log4GUI: execute: 13000000: 0: 100a8: flw f1, 0(x2): 0
13000000: system.cpu.decode: Log4GUI: decode: 13000000: 0: 100ac: auipc x3, 1
13000000: system.cpu.fetch1: Log4GUI: fetch1: 13000000: 0: 100b0: <assembly>
14000000: system.cpu.writeback: Log4GUI: writeback: 14000000: 0: 100a4: addi x2, x2, 220
14000000: system.cpu.writeback: REGISTERS
14000000: global: x0=0x00000000
14000000: global: x1=0x0001113c
14000000: global: x2=0x0001117c
14000000: global: x3=0x00000000
14000000: global: x4=0x00000000
14000000: global: x5=0x00000000
14000000: global: x6=0x00000000
14000000: global: x7=0x00000000
14000000: global: x8=0x00000000
14000000: global: x9=0x00000000
14000000: global: x10=0x00000000
14000000: global: x11=0x00000000
14000000: global: x12=0x00000000
14000000: global: x13=0x00000000
14000000: global: x14=0x00000000
14000000: global: x15=0x00000000
14000000: global: x16=0x00000000
14000000: global: x17=0x00000000
14000000: global: x18=0x00000000
14000000: global: x19=0x00000000
14000000: global: x20=0x00000000
14000000: global: x21=0x00000000
14000000: global: x22=0x00000000
14000000: global: x23=0x00000000
14000000: global: x24=0x00000000
14000000: global: x25=0x00000000
14000000: global: x26=0x00000000
14000000: global: x27=0x00000000
14000000: global: x28=0x00000000
14000000: global: x29=0x00000000
14000000: global: x30=0x00000000
14000000: global: x31=0x00000000
14000000: global: f0=0x00000000
14000000: global: f1=0x40933333
14000000: global: f2=0x00000000
14000000: global: f3=0x00000000
14000000: global: f4=0x00000000
14000000: global: f5=0x00000000
14000000: global: f6=0x00000000
14000000: global: f7=0x00000000
14000000: global: f8=0x00000000
14000000: global: f9=0x00000000
14000000: global: f10=0x00000000
14000000: global: f11=0x00000000
14000000: global: f12=0x00000000
14000000: global: f13=0x00000000
14000000: global: f14=0x00000000
14000000: global: f15=0x00000000
14000000: global: f16=0x00000000
14000000: global: f17=0x00000000
14000000: global: f18=0x00000000
14000000: global: f19=0x00000000
14000000: global: f20=0x00000000
14000000: global: f21=0x00000000
14000000: global: f22=0x00000000
14000000: global: f23=0x00000000
14000000: global: f24=0x00000000
14000000: global: f25=0x00000000
14000000: global: f26=0x00000000
14000000: global: f27=0x00000000
14000000: global: f28=0x00000000
14000000: global: f29=0x00000000
14000000: global: f30=0x00000000
14000000: global: f31=0x00000000
14000000: system.cpu.memory: Log4GUI: memory: 14000000: 0: 100a8: flw f1, 0(x2)
14000000: system.cpu.execute: Log4GUI: execute: 14000000: 0: 100ac: auipc x3, 1: 0
14000000: system.cpu.decode: Log4GUI: decode: 14000000: 0: 100b0: addi x3, x3, 272
14000000: system.cpu.fetch1: Log4GUI: fetch1: 14000000: 0: 100b4: <assembly>
15000000: system.cpu.writeback: Log4GUI: writeback: 15000000: 0: 100a8: flw f1, 0(x2)
15000000: system.cpu.writeback: REGISTERS
15000000: global: x0=0x00000000
15000000: global: x1=0x0001113c
15000000: global: x2=0x0001117c
15000000: global: x3=0x00000000
15000000: global: x4=0x00000000
15000000: global: x5=0x00000000
15000000: global: x6=0x00000000
15000000: global: x7=0x00000000
15000000: global: x8=0x00000000
15000000: global: x9=0x00000000
15000000: global: x10=0x00000000
15000000: global: x11=0x00000000
15000000: global: x12=0x00000000
15000000: global: x13=0x00000000
15000000: global: x14=0x00000000
15000000: global: x15=0x00000000
15000000: global: x16=0x00000000
15000000: global: x17=0x00000000
15000000: global: x18=0x00000000
15000000: global: x19=0x00000000
15000000: global: x20=0x00000000
15000000: global: x21=0x00000000
15000000: global: x22=0x00000000
15000000: global: x23=0x00000000
15000000: global: x24=0x00000000
15000000: global: x25=0x00000000
15000000: global: x26=0x00000000
15000000: global: x27=0x00000000
15000000: global: x28=0x00000000
15000000: global: x29=0x00000000
15000000: global: x30=0x00000000
15000000: global: x31=0x00000000
15000000: global: f0=0x00000000
15000000: global: f1=0x4019999a
15000000: global: f2=0x00000000
15000000: global: f3=0x00000000
15000000: global: f4=0x00000000
15000000: global: f5=0x00000000
15000000: global: f6=0x00000000
15000000: global: f7=0x00000000
15000000: global: f8=0x00000000
15000000: global: f9=0x00000000
15000000: global: f10=0x00000000
15000000: global: f11=0x00000000
15000000: global: f12=0x00000000
15000000: global: f13=0x00000000
15000000: global: f14=0x00000000
15000000: global: f15=0x00000000
15000000: global: f16=0x00000000
15000000: global: f17=0x00000000
15000000: global: f18=0x00000000
15000000: global: f19=0x00000000
15000000: global: f20=0x00000000
15000000: global: f21=0x00000000
15000000: global: f22=0x00000000
15000000: global: f23=0x00000000
15000000: global: f24=0x00000000
15000000: global: f25=0x00000000
15000000: global: f26=0x00000000
15000000: global: f27=0x00000000
15000000: global: f28=0x00000000
15000000: global: f29=0x00000000
15000000: global: f30=0x00000000
15000000: global: f31=0x00000000
15000000: system.cpu.memory: Log4GUI: memory: 15000000: 0: 100ac: auipc x3, 1
15000000: system.cpu.execute: Log4GUI: execute: 15000000: 0: 100b0: addi x3, x3, 272: 0
15000000: system.cpu.decode: Log4GUI: decode: 15000000: 0: 100b4: lb x4, 0(x3)
15000000: system.cpu.fetch1: Log4GUI: fetch1: 15000000: 0: 100b8: <assembly>
16000000: system.cpu.writeback: Log4GUI: writeback: 16000000: 0: 100ac: auipc x3, 1
16000000: system.cpu.writeback: REGISTERS
16000000: global: x0=0x00000000
16000000: global: x1=0x0001113c
16000000: global: x2=0x0001117c
16000000: global: x3=0x000110ac
16000000: global: x4=0x00000000
16000000: global: x5=0x00000000
16000000: global: x6=0x00000000
16000000: global: x7=0x00000000
16000000: global: x8=0x00000000
16000000: global: x9=0x00000000
16000000: global: x10=0x00000000
16000000: global: x11=0x00000000
16000000: global: x12=0x00000000
16000000: global: x13=0x00000000
16000000: global: x14=0x00000000
16000000: global: x15=0x00000000
16000000: global: x16=0x00000000
16000000: global: x17=0x00000000
16000000: global: x18=0x00000000
16000000: global: x19=0x00000000
16000000: global: x20=0x00000000
16000000: global: x21=0x00000000
16000000: global: x22=0x00000000
16000000: global: x23=0x00000000
16000000: global: x24=0x00000000
16000000: global: x25=0x00000000
16000000: global: x26=0x00000000
16000000: global: x27=0x00000000
16000000: global: x28=0x00000000
16000000: global: x29=0x00000000
16000000: global: x30=0x00000000
16000000: global: x31=0x00000000
16000000: global: f0=0x00000000
16000000: global: f1=0x4019999a
16000000: global: f2=0x00000000
16000000: global: f3=0x00000000
16000000: global: f4=0x00000000
16000000: global: f5=0x00000000
16000000: global: f6=0x00000000
16000000: global: f7=0x00000000
16000000: global: f8=0x00000000
16000000: global: f9=0x00000000
16000000: global: f10=0x00000000
16000000: global: f11=0x00000000
16000000: global: f12=0x00000000
16000000: global: f13=0x00000000
16000000: global: f14=0x00000000
16000000: global: f15=0x00000000
16000000: global: f16=0x00000000
16000000: global: f17=0x00000000
16000000: global: f18=0x00000000
16000000: global: f19=0x00000000
16000000: global: f20=0x00000000
16000000: global: f21=0x00000000
16000000: global: f22=0x00000000
16000000: global: f23=0x00000000
16000000: global: f24=0x00000000
16000000: global: f25=0x00000000
16000000: global: f26=0x00000000
16000000: global: f27=0x00000000
16000000: global: f28=0x00000000
16000000: global: f29=0x00000000
16000000: global: f30=0x00000000
16000000: global: f31=0x00000000
16000000: system.cpu.memory: Log4GUI: memory: 16000000: 0: 100b0: addi x3, x3, 272
16000000: system.cpu.execute: Log4GUI: execute: 16000000: 0: 100b4: lb x4, 0(x3): 0
16000000: system.cpu.decode: Log4GUI: decode: 16000000: 0: 100b8: fcvt_s_w f3, x4
16000000: system.cpu.fetch1: Log4GUI: fetch1: 16000000: 0: 100bc: <assembly>
17000000: system.cpu.writeback: Log4GUI: writeback: 17000000: 0: 100b0: addi x3, x3, 272
17000000: system.cpu.writeback: REGISTERS
17000000: global: x0=0x00000000
17000000: global: x1=0x0001113c
17000000: global: x2=0x0001117c
17000000: global: x3=0x000111bc
17000000: global: x4=0x00000000
17000000: global: x5=0x00000000
17000000: global: x6=0x00000000
17000000: global: x7=0x00000000
17000000: global: x8=0x00000000
17000000: global: x9=0x00000000
17000000: global: x10=0x00000000
17000000: global: x11=0x00000000
17000000: global: x12=0x00000000
17000000: global: x13=0x00000000
17000000: global: x14=0x00000000
17000000: global: x15=0x00000000
17000000: global: x16=0x00000000
17000000: global: x17=0x00000000
17000000: global: x18=0x00000000
17000000: global: x19=0x00000000
17000000: global: x20=0x00000000
17000000: global: x21=0x00000000
17000000: global: x22=0x00000000
17000000: global: x23=0x00000000
17000000: global: x24=0x00000000
17000000: global: x25=0x00000000
17000000: global: x26=0x00000000
17000000: global: x27=0x00000000
17000000: global: x28=0x00000000
17000000: global: x29=0x00000000
17000000: global: x30=0x00000000
17000000: global: x31=0x00000000
17000000: global: f0=0x00000000
17000000: global: f1=0x4019999a
17000000: global: f2=0x00000000
17000000: global: f3=0x00000000
17000000: global: f4=0x00000000
17000000: global: f5=0x00000000
17000000: global: f6=0x00000000
17000000: global: f7=0x00000000
17000000: global: f8=0x00000000
17000000: global: f9=0x00000000
17000000: global: f10=0x00000000
17000000: global: f11=0x00000000
17000000: global: f12=0x00000000
17000000: global: f13=0x00000000
17000000: global: f14=0x00000000
17000000: global: f15=0x00000000
17000000: global: f16=0x00000000
17000000: global: f17=0x00000000
17000000: global: f18=0x00000000
17000000: global: f19=0x00000000
17000000: global: f20=0x00000000
17000000: global: f21=0x00000000
17000000: global: f22=0x00000000
17000000: global: f23=0x00000000
17000000: global: f24=0x00000000
17000000: global: f25=0x00000000
17000000: global: f26=0x00000000
17000000: global: f27=0x00000000
17000000: global: f28=0x00000000
17000000: global: f29=0x00000000
17000000: global: f30=0x00000000
17000000: global: f31=0x00000000
17000000: system.cpu.memory: Log4GUI: memory: 17000000: 0: 100b4: lb x4, 0(x3)
17000000: system.cpu.decode: Log4GUI: decode: 17000000: 1: 100b8: fcvt_s_w f3, x4
17000000: system.cpu.fetch1: Log4GUI: fetch1: 17000000: 1: 100bc: <assembly>
18000000: system.cpu.writeback: Log4GUI: writeback: 18000000: 0: 100b4: lb x4, 0(x3)
18000000: system.cpu.writeback: REGISTERS
18000000: global: x0=0x00000000
18000000: global: x1=0x0001113c
18000000: global: x2=0x0001117c
18000000: global: x3=0x000111bc
18000000: global: x4=0xffffffab
18000000: global: x5=0x00000000
18000000: global: x6=0x00000000
18000000: global: x7=0x00000000
18000000: global: x8=0x00000000
18000000: global: x9=0x00000000
18000000: global: x10=0x00000000
18000000: global: x11=0x00000000
18000000: global: x12=0x00000000
18000000: global: x13=0x00000000
18000000: global: x14=0x00000000
18000000: global: x15=0x00000000
18000000: global: x16=0x00000000
18000000: global: x17=0x00000000
18000000: global: x18=0x00000000
18000000: global: x19=0x00000000
18000000: global: x20=0x00000000
18000000: global: x21=0x00000000
18000000: global: x22=0x00000000
18000000: global: x23=0x00000000
18000000: global: x24=0x00000000
18000000: global: x25=0x00000000
18000000: global: x26=0x00000000
18000000: global: x27=0x00000000
18000000: global: x28=0x00000000
18000000: global: x29=0x00000000
18000000: global: x30=0x00000000
18000000: global: x31=0x00000000
18000000: global: f0=0x00000000
18000000: global: f1=0x4019999a
18000000: global: f2=0x00000000
18000000: global: f3=0x00000000
18000000: global: f4=0x00000000
18000000: global: f5=0x00000000
18000000: global: f6=0x00000000
18000000: global: f7=0x00000000
18000000: global: f8=0x00000000
18000000: global: f9=0x00000000
18000000: global: f10=0x00000000
18000000: global: f11=0x00000000
18000000: global: f12=0x00000000
18000000: global: f13=0x00000000
18000000: global: f14=0x00000000
18000000: global: f15=0x00000000
18000000: global: f16=0x00000000
18000000: global: f17=0x00000000
18000000: global: f18=0x00000000
18000000: global: f19=0x00000000
18000000: global: f20=0x00000000
18000000: global: f21=0x00000000
18000000: global: f22=0x00000000
18000000: global: f23=0x00000000
18000000: global: f24=0x00000000
18000000: global: f25=0x00000000
18000000: global: f26=0x00000000
18000000: global: f27=0x00000000
18000000: global: f28=0x00000000
18000000: global: f29=0x00000000
18000000: global: f30=0x00000000
18000000: global: f31=0x00000000
18000000: system.cpu.execute: Log4GUI: execute: 18000000: 0: 100b8: fcvt_s_w f3, x4: 3
18000000: system.cpu.decode: Log4GUI: decode: 18000000: 0: 100bc: auipc x3, 1
18000000: system.cpu.fetch1: Log4GUI: fetch1: 18000000: 0: 100c0: <assembly>
19000000: system.cpu.execute: Log4GUI: execute: 19000000: 0: 100bc: auipc x3, 1: 0
19000000: system.cpu.execute: Log4GUI: execute: 19000000: 0: 100b8: fcvt_s_w f3, x4: 3
19000000: system.cpu.decode: Log4GUI: decode: 19000000: 0: 100c0: addi x3, x3, 261
19000000: system.cpu.fetch1: Log4GUI: fetch1: 19000000: 0: 100c4: <assembly>
20000000: system.cpu.memory: Log4GUI: memory: 20000000: 0: 100bc: auipc x3, 1
20000000: system.cpu.execute: Log4GUI: execute: 20000000: 0: 100c0: addi x3, x3, 261: 0
20000000: system.cpu.execute: Log4GUI: execute: 20000000: 0: 100b8: fcvt_s_w f3, x4: 3
20000000: system.cpu.decode: Log4GUI: decode: 20000000: 0: 100c4: lb x5, 0(x3)
20000000: system.cpu.fetch1: Log4GUI: fetch1: 20000000: 0: 100c8: <assembly>
21000000: system.cpu.writeback: Log4GUI: writeback: 21000000: 0: 100bc: auipc x3, 1
21000000: system.cpu.writeback: REGISTERS
21000000: global: x0=0x00000000
21000000: global: x1=0x0001113c
21000000: global: x2=0x0001117c
21000000: global: x3=0x000110bc
21000000: global: x4=0xffffffab
21000000: global: x5=0x00000000
21000000: global: x6=0x00000000
21000000: global: x7=0x00000000
21000000: global: x8=0x00000000
21000000: global: x9=0x00000000
21000000: global: x10=0x00000000
21000000: global: x11=0x00000000
21000000: global: x12=0x00000000
21000000: global: x13=0x00000000
21000000: global: x14=0x00000000
21000000: global: x15=0x00000000
21000000: global: x16=0x00000000
21000000: global: x17=0x00000000
21000000: global: x18=0x00000000
21000000: global: x19=0x00000000
21000000: global: x20=0x00000000
21000000: global: x21=0x00000000
21000000: global: x22=0x00000000
21000000: global: x23=0x00000000
21000000: global: x24=0x00000000
21000000: global: x25=0x00000000
21000000: global: x26=0x00000000
21000000: global: x27=0x00000000
21000000: global: x28=0x00000000
21000000: global: x29=0x00000000
21000000: global: x30=0x00000000
21000000: global: x31=0x00000000
21000000: global: f0=0x00000000
21000000: global: f1=0x4019999a
21000000: global: f2=0x00000000
21000000: global: f3=0x00000000
21000000: global: f4=0x00000000
21000000: global: f5=0x00000000
21000000: global: f6=0x00000000
21000000: global: f7=0x00000000
21000000: global: f8=0x00000000
21000000: global: f9=0x00000000
21000000: global: f10=0x00000000
21000000: global: f11=0x00000000
21000000: global: f12=0x00000000
21000000: global: f13=0x00000000
21000000: global: f14=0x00000000
21000000: global: f15=0x00000000
21000000: global: f16=0x00000000
21000000: global: f17=0x00000000
21000000: global: f18=0x00000000
21000000: global: f19=0x00000000
21000000: global: f20=0x00000000
21000000: global: f21=0x00000000
21000000: global: f22=0x00000000
21000000: global: f23=0x00000000
21000000: global: f24=0x00000000
21000000: global: f25=0x00000000
21000000: global: f26=0x00000000
21000000: global: f27=0x00000000
21000000: global: f28=0x00000000
21000000: global: f29=0x00000000
21000000: global: f30=0x00000000
21000000: global: f31=0x00000000
21000000: system.cpu.memory: Log4GUI: memory: 21000000: 0: 100c0: addi x3, x3, 261
21000000: system.cpu.execute: Log4GUI: execute: 21000000: 0: 100c4: lb x5, 0(x3): 0
21000000: system.cpu.execute: Log4GUI: execute: 21000000: 0: 100b8: fcvt_s_w f3, x4: 3
21000000: system.cpu.decode: Log4GUI: decode: 21000000: 0: 100c8: auipc x8, 1
21000000: system.cpu.fetch1: Log4GUI: fetch1: 21000000: 0: 100cc: <assembly>
22000000: system.cpu.writeback: Log4GUI: writeback: 22000000: 0: 100c0: addi x3, x3, 261
22000000: system.cpu.writeback: REGISTERS
22000000: global: x0=0x00000000
22000000: global: x1=0x0001113c
22000000: global: x2=0x0001117c
22000000: global: x3=0x000111c1
22000000: global: x4=0xffffffab
22000000: global: x5=0x00000000
22000000: global: x6=0x00000000
22000000: global: x7=0x00000000
22000000: global: x8=0x00000000
22000000: global: x9=0x00000000
22000000: global: x10=0x00000000
22000000: global: x11=0x00000000
22000000: global: x12=0x00000000
22000000: global: x13=0x00000000
22000000: global: x14=0x00000000
22000000: global: x15=0x00000000
22000000: global: x16=0x00000000
22000000: global: x17=0x00000000
22000000: global: x18=0x00000000
22000000: global: x19=0x00000000
22000000: global: x20=0x00000000
22000000: global: x21=0x00000000
22000000: global: x22=0x00000000
22000000: global: x23=0x00000000
22000000: global: x24=0x00000000
22000000: global: x25=0x00000000
22000000: global: x26=0x00000000
22000000: global: x27=0x00000000
22000000: global: x28=0x00000000
22000000: global: x29=0x00000000
22000000: global: x30=0x00000000
22000000: global: x31=0x00000000
22000000: global: f0=0x00000000
22000000: global: f1=0x4019999a
22000000: global: f2=0x00000000
22000000: global: f3=0x00000000
22000000: global: f4=0x00000000
22000000: global: f5=0x00000000
22000000: global: f6=0x00000000
22000000: global: f7=0x00000000
22000000: global: f8=0x00000000
22000000: global: f9=0x00000000
22000000: global: f10=0x00000000
22000000: global: f11=0x00000000
22000000: global: f12=0x00000000
22000000: global: f13=0x00000000
22000000: global: f14=0x00000000
22000000: global: f15=0x00000000
22000000: global: f16=0x00000000
22000000: global: f17=0x00000000
22000000: global: f18=0x00000000
22000000: global: f19=0x00000000
22000000: global: f20=0x00000000
22000000: global: f21=0x00000000
22000000: global: f22=0x00000000
22000000: global: f23=0x00000000
22000000: global: f24=0x00000000
22000000: global: f25=0x00000000
22000000: global: f26=0x00000000
22000000: global: f27=0x00000000
22000000: global: f28=0x00000000
22000000: global: f29=0x00000000
22000000: global: f30=0x00000000
22000000: global: f31=0x00000000
22000000: system.cpu.memory: Log4GUI: memory: 22000000: 0: 100b8: fcvt_s_w f3, x4
22000000: system.cpu.decode: Log4GUI: decode: 22000000: 1: 100c8: auipc x8, 1
22000000: system.cpu.fetch1: Log4GUI: fetch1: 22000000: 1: 100cc: <assembly>
23000000: system.cpu.writeback: Log4GUI: writeback: 23000000: 0: 100b8: fcvt_s_w f3, x4
23000000: system.cpu.writeback: REGISTERS
23000000: global: x0=0x00000000
23000000: global: x1=0x0001113c
23000000: global: x2=0x0001117c
23000000: global: x3=0x000111c1
23000000: global: x4=0xffffffab
23000000: global: x5=0x00000000
23000000: global: x6=0x00000000
23000000: global: x7=0x00000000
23000000: global: x8=0x00000000
23000000: global: x9=0x00000000
23000000: global: x10=0x00000000
23000000: global: x11=0x00000000
23000000: global: x12=0x00000000
23000000: global: x13=0x00000000
23000000: global: x14=0x00000000
23000000: global: x15=0x00000000
23000000: global: x16=0x00000000
23000000: global: x17=0x00000000
23000000: global: x18=0x00000000
23000000: global: x19=0x00000000
23000000: global: x20=0x00000000
23000000: global: x21=0x00000000
23000000: global: x22=0x00000000
23000000: global: x23=0x00000000
23000000: global: x24=0x00000000
23000000: global: x25=0x00000000
23000000: global: x26=0x00000000
23000000: global: x27=0x00000000
23000000: global: x28=0x00000000
23000000: global: x29=0x00000000
23000000: global: x30=0x00000000
23000000: global: x31=0x00000000
23000000: global: f0=0x00000000
23000000: global: f1=0x4019999a
23000000: global: f2=0x00000000
23000000: global: f3=0xc2aa0000
23000000: global: f4=0x00000000
23000000: global: f5=0x00000000
23000000: global: f6=0x00000000
23000000: global: f7=0x00000000
23000000: global: f8=0x00000000
23000000: global: f9=0x00000000
23000000: global: f10=0x00000000
23000000: global: f11=0x00000000
23000000: global: f12=0x00000000
23000000: global: f13=0x00000000
23000000: global: f14=0x00000000
23000000: global: f15=0x00000000
23000000: global: f16=0x00000000
23000000: global: f17=0x00000000
23000000: global: f18=0x00000000
23000000: global: f19=0x00000000
23000000: global: f20=0x00000000
23000000: global: f21=0x00000000
23000000: global: f22=0x00000000
23000000: global: f23=0x00000000
23000000: global: f24=0x00000000
23000000: global: f25=0x00000000
23000000: global: f26=0x00000000
23000000: global: f27=0x00000000
23000000: global: f28=0x00000000
23000000: global: f29=0x00000000
23000000: global: f30=0x00000000
23000000: global: f31=0x00000000
23000000: system.cpu.memory: Log4GUI: memory: 23000000: 0: 100c4: lb x5, 0(x3)
23000000: system.cpu.execute: Log4GUI: execute: 23000000: 0: 100c8: auipc x8, 1: 0
23000000: system.cpu.decode: Log4GUI: decode: 23000000: 0: 100cc: addi x8, x8, 245
23000000: system.cpu.fetch1: Log4GUI: fetch1: 23000000: 0: 100d0: <assembly>
24000000: system.cpu.writeback: Log4GUI: writeback: 24000000: 0: 100c4: lb x5, 0(x3)
24000000: system.cpu.writeback: REGISTERS
24000000: global: x0=0x00000000
24000000: global: x1=0x0001113c
24000000: global: x2=0x0001117c
24000000: global: x3=0x000111c1
24000000: global: x4=0xffffffab
24000000: global: x5=0x00000010
24000000: global: x6=0x00000000
24000000: global: x7=0x00000000
24000000: global: x8=0x00000000
24000000: global: x9=0x00000000
24000000: global: x10=0x00000000
24000000: global: x11=0x00000000
24000000: global: x12=0x00000000
24000000: global: x13=0x00000000
24000000: global: x14=0x00000000
24000000: global: x15=0x00000000
24000000: global: x16=0x00000000
24000000: global: x17=0x00000000
24000000: global: x18=0x00000000
24000000: global: x19=0x00000000
24000000: global: x20=0x00000000
24000000: global: x21=0x00000000
24000000: global: x22=0x00000000
24000000: global: x23=0x00000000
24000000: global: x24=0x00000000
24000000: global: x25=0x00000000
24000000: global: x26=0x00000000
24000000: global: x27=0x00000000
24000000: global: x28=0x00000000
24000000: global: x29=0x00000000
24000000: global: x30=0x00000000
24000000: global: x31=0x00000000
24000000: global: f0=0x00000000
24000000: global: f1=0x4019999a
24000000: global: f2=0x00000000
24000000: global: f3=0xc2aa0000
24000000: global: f4=0x00000000
24000000: global: f5=0x00000000
24000000: global: f6=0x00000000
24000000: global: f7=0x00000000
24000000: global: f8=0x00000000
24000000: global: f9=0x00000000
24000000: global: f10=0x00000000
24000000: global: f11=0x00000000
24000000: global: f12=0x00000000
24000000: global: f13=0x00000000
24000000: global: f14=0x00000000
24000000: global: f15=0x00000000
24000000: global: f16=0x00000000
24000000: global: f17=0x00000000
24000000: global: f18=0x00000000
24000000: global: f19=0x00000000
24000000: global: f20=0x00000000
24000000: global: f21=0x00000000
24000000: global: f22=0x00000000
24000000: global: f23=0x00000000
24000000: global: f24=0x00000000
24000000: global: f25=0x00000000
24000000: global: f26=0x00000000
24000000: global: f27=0x00000000
24000000: global: f28=0x00000000
24000000: global: f29=0x00000000
24000000: global: f30=0x00000000
24000000: global: f31=0x00000000
24000000: system.cpu.memory: Log4GUI: memory: 24000000: 0: 100c8: auipc x8, 1
24000000: system.cpu.execute: Log4GUI: execute: 24000000: 0: 100cc: addi x8, x8, 245: 0
24000000: system.cpu.decode: Log4GUI: decode: 24000000: 0: 100d0: lw x9, 0(x8)
24000000: system.cpu.fetch1: Log4GUI: fetch1: 24000000: 0: 100d4: <assembly>
25000000: system.cpu.writeback: Log4GUI: writeback: 25000000: 0: 100c8: auipc x8, 1
25000000: system.cpu.writeback: REGISTERS
25000000: global: x0=0x00000000
25000000: global: x1=0x0001113c
25000000: global: x2=0x0001117c
25000000: global: x3=0x000111c1
25000000: global: x4=0xffffffab
25000000: global: x5=0x00000010
25000000: global: x6=0x00000000
25000000: global: x7=0x00000000
25000000: global: x8=0x000110c8
25000000: global: x9=0x00000000
25000000: global: x10=0x00000000
25000000: global: x11=0x00000000
25000000: global: x12=0x00000000
25000000: global: x13=0x00000000
25000000: global: x14=0x00000000
25000000: global: x15=0x00000000
25000000: global: x16=0x00000000
25000000: global: x17=0x00000000
25000000: global: x18=0x00000000
25000000: global: x19=0x00000000
25000000: global: x20=0x00000000
25000000: global: x21=0x00000000
25000000: global: x22=0x00000000
25000000: global: x23=0x00000000
25000000: global: x24=0x00000000
25000000: global: x25=0x00000000
25000000: global: x26=0x00000000
25000000: global: x27=0x00000000
25000000: global: x28=0x00000000
25000000: global: x29=0x00000000
25000000: global: x30=0x00000000
25000000: global: x31=0x00000000
25000000: global: f0=0x00000000
25000000: global: f1=0x4019999a
25000000: global: f2=0x00000000
25000000: global: f3=0xc2aa0000
25000000: global: f4=0x00000000
25000000: global: f5=0x00000000
25000000: global: f6=0x00000000
25000000: global: f7=0x00000000
25000000: global: f8=0x00000000
25000000: global: f9=0x00000000
25000000: global: f10=0x00000000
25000000: global: f11=0x00000000
25000000: global: f12=0x00000000
25000000: global: f13=0x00000000
25000000: global: f14=0x00000000
25000000: global: f15=0x00000000
25000000: global: f16=0x00000000
25000000: global: f17=0x00000000
25000000: global: f18=0x00000000
25000000: global: f19=0x00000000
25000000: global: f20=0x00000000
25000000: global: f21=0x00000000
25000000: global: f22=0x00000000
25000000: global: f23=0x00000000
25000000: global: f24=0x00000000
25000000: global: f25=0x00000000
25000000: global: f26=0x00000000
25000000: global: f27=0x00000000
25000000: global: f28=0x00000000
25000000: global: f29=0x00000000
25000000: global: f30=0x00000000
25000000: global: f31=0x00000000
25000000: system.cpu.memory: Log4GUI: memory: 25000000: 0: 100cc: addi x8, x8, 245
25000000: system.cpu.execute: Log4GUI: execute: 25000000: 0: 100d0: lw x9, 0(x8): 0
25000000: system.cpu.decode: Log4GUI: decode: 25000000: 0: 100d4: auipc x11, 1
25000000: system.cpu.fetch1: Log4GUI: fetch1: 25000000: 0: 100d8: <assembly>
26000000: system.cpu.writeback: Log4GUI: writeback: 26000000: 0: 100cc: addi x8, x8, 245
26000000: system.cpu.writeback: REGISTERS
26000000: global: x0=0x00000000
26000000: global: x1=0x0001113c
26000000: global: x2=0x0001117c
26000000: global: x3=0x000111c1
26000000: global: x4=0xffffffab
26000000: global: x5=0x00000010
26000000: global: x6=0x00000000
26000000: global: x7=0x00000000
26000000: global: x8=0x000111bd
26000000: global: x9=0x00000000
26000000: global: x10=0x00000000
26000000: global: x11=0x00000000
26000000: global: x12=0x00000000
26000000: global: x13=0x00000000
26000000: global: x14=0x00000000
26000000: global: x15=0x00000000
26000000: global: x16=0x00000000
26000000: global: x17=0x00000000
26000000: global: x18=0x00000000
26000000: global: x19=0x00000000
26000000: global: x20=0x00000000
26000000: global: x21=0x00000000
26000000: global: x22=0x00000000
26000000: global: x23=0x00000000
26000000: global: x24=0x00000000
26000000: global: x25=0x00000000
26000000: global: x26=0x00000000
26000000: global: x27=0x00000000
26000000: global: x28=0x00000000
26000000: global: x29=0x00000000
26000000: global: x30=0x00000000
26000000: global: x31=0x00000000
26000000: global: f0=0x00000000
26000000: global: f1=0x4019999a
26000000: global: f2=0x00000000
26000000: global: f3=0xc2aa0000
26000000: global: f4=0x00000000
26000000: global: f5=0x00000000
26000000: global: f6=0x00000000
26000000: global: f7=0x00000000
26000000: global: f8=0x00000000
26000000: global: f9=0x00000000
26000000: global: f10=0x00000000
26000000: global: f11=0x00000000
26000000: global: f12=0x00000000
26000000: global: f13=0x00000000
26000000: global: f14=0x00000000
26000000: global: f15=0x00000000
26000000: global: f16=0x00000000
26000000: global: f17=0x00000000
26000000: global: f18=0x00000000
26000000: global: f19=0x00000000
26000000: global: f20=0x00000000
26000000: global: f21=0x00000000
26000000: global: f22=0x00000000
26000000: global: f23=0x00000000
26000000: global: f24=0x00000000
26000000: global: f25=0x00000000
26000000: global: f26=0x00000000
26000000: global: f27=0x00000000
26000000: global: f28=0x00000000
26000000: global: f29=0x00000000
26000000: global: f30=0x00000000
26000000: global: f31=0x00000000
26000000: system.cpu.memory: Log4GUI: memory: 26000000: 0: 100d0: lw x9, 0(x8)
26000000: system.cpu.execute: Log4GUI: execute: 26000000: 0: 100d4: auipc x11, 1: 0
26000000: system.cpu.decode: Log4GUI: decode: 26000000: 0: 100d8: addi x11, x11, 232
26000000: system.cpu.fetch1: Log4GUI: fetch1: 26000000: 0: 100dc: <assembly>
27000000: system.cpu.writeback: Log4GUI: writeback: 27000000: 0: 100d0: lw x9, 0(x8)
27000000: system.cpu.writeback: REGISTERS
27000000: global: x0=0x00000000
27000000: global: x1=0x0001113c
27000000: global: x2=0x0001117c
27000000: global: x3=0x000111c1
27000000: global: x4=0xffffffab
27000000: global: x5=0x00000010
27000000: global: x6=0x00000000
27000000: global: x7=0x00000000
27000000: global: x8=0x000111bd
27000000: global: x9=0x7f800000
27000000: global: x10=0x00000000
27000000: global: x11=0x00000000
27000000: global: x12=0x00000000
27000000: global: x13=0x00000000
27000000: global: x14=0x00000000
27000000: global: x15=0x00000000
27000000: global: x16=0x00000000
27000000: global: x17=0x00000000
27000000: global: x18=0x00000000
27000000: global: x19=0x00000000
27000000: global: x20=0x00000000
27000000: global: x21=0x00000000
27000000: global: x22=0x00000000
27000000: global: x23=0x00000000
27000000: global: x24=0x00000000
27000000: global: x25=0x00000000
27000000: global: x26=0x00000000
27000000: global: x27=0x00000000
27000000: global: x28=0x00000000
27000000: global: x29=0x00000000
27000000: global: x30=0x00000000
27000000: global: x31=0x00000000
27000000: global: f0=0x00000000
27000000: global: f1=0x4019999a
27000000: global: f2=0x00000000
27000000: global: f3=0xc2aa0000
27000000: global: f4=0x00000000
27000000: global: f5=0x00000000
27000000: global: f6=0x00000000
27000000: global: f7=0x00000000
27000000: global: f8=0x00000000
27000000: global: f9=0x00000000
27000000: global: f10=0x00000000
27000000: global: f11=0x00000000
27000000: global: f12=0x00000000
27000000: global: f13=0x00000000
27000000: global: f14=0x00000000
27000000: global: f15=0x00000000
27000000: global: f16=0x00000000
27000000: global: f17=0x00000000
27000000: global: f18=0x00000000
27000000: global: f19=0x00000000
27000000: global: f20=0x00000000
27000000: global: f21=0x00000000
27000000: global: f22=0x00000000
27000000: global: f23=0x00000000
27000000: global: f24=0x00000000
27000000: global: f25=0x00000000
27000000: global: f26=0x00000000
27000000: global: f27=0x00000000
27000000: global: f28=0x00000000
27000000: global: f29=0x00000000
27000000: global: f30=0x00000000
27000000: global: f31=0x00000000
27000000: system.cpu.memory: Log4GUI: memory: 27000000: 0: 100d4: auipc x11, 1
27000000: system.cpu.execute: Log4GUI: execute: 27000000: 0: 100d8: addi x11, x11, 232: 0
27000000: system.cpu.decode: Log4GUI: decode: 27000000: 0: 100dc: add x6, x0, x0
27000000: system.cpu.fetch1: Log4GUI: fetch1: 27000000: 0: 100e0: <assembly>
28000000: system.cpu.writeback: Log4GUI: writeback: 28000000: 0: 100d4: auipc x11, 1
28000000: system.cpu.writeback: REGISTERS
28000000: global: x0=0x00000000
28000000: global: x1=0x0001113c
28000000: global: x2=0x0001117c
28000000: global: x3=0x000111c1
28000000: global: x4=0xffffffab
28000000: global: x5=0x00000010
28000000: global: x6=0x00000000
28000000: global: x7=0x00000000
28000000: global: x8=0x000111bd
28000000: global: x9=0x7f800000
28000000: global: x10=0x00000000
28000000: global: x11=0x000110d4
28000000: global: x12=0x00000000
28000000: global: x13=0x00000000
28000000: global: x14=0x00000000
28000000: global: x15=0x00000000
28000000: global: x16=0x00000000
28000000: global: x17=0x00000000
28000000: global: x18=0x00000000
28000000: global: x19=0x00000000
28000000: global: x20=0x00000000
28000000: global: x21=0x00000000
28000000: global: x22=0x00000000
28000000: global: x23=0x00000000
28000000: global: x24=0x00000000
28000000: global: x25=0x00000000
28000000: global: x26=0x00000000
28000000: global: x27=0x00000000
28000000: global: x28=0x00000000
28000000: global: x29=0x00000000
28000000: global: x30=0x00000000
28000000: global: x31=0x00000000
28000000: global: f0=0x00000000
28000000: global: f1=0x4019999a
28000000: global: f2=0x00000000
28000000: global: f3=0xc2aa0000
28000000: global: f4=0x00000000
28000000: global: f5=0x00000000
28000000: global: f6=0x00000000
28000000: global: f7=0x00000000
28000000: global: f8=0x00000000
28000000: global: f9=0x00000000
28000000: global: f10=0x00000000
28000000: global: f11=0x00000000
28000000: global: f12=0x00000000
28000000: global: f13=0x00000000
28000000: global: f14=0x00000000
28000000: global: f15=0x00000000
28000000: global: f16=0x00000000
28000000: global: f17=0x00000000
28000000: global: f18=0x00000000
28000000: global: f19=0x00000000
28000000: global: f20=0x00000000
28000000: global: f21=0x00000000
28000000: global: f22=0x00000000
28000000: global: f23=0x00000000
28000000: global: f24=0x00000000
28000000: global: f25=0x00000000
28000000: global: f26=0x00000000
28000000: global: f27=0x00000000
28000000: global: f28=0x00000000
28000000: global: f29=0x00000000
28000000: global: f30=0x00000000
28000000: global: f31=0x00000000
28000000: system.cpu.memory: Log4GUI: memory: 28000000: 0: 100d8: addi x11, x11, 232
28000000: system.cpu.execute: Log4GUI: execute: 28000000: 0: 100dc: add x6, x0, x0: 0
28000000: system.cpu.decode: Log4GUI: decode: 28000000: 0: 100e0: slli x7, x6, 2
28000000: system.cpu.fetch1: Log4GUI: fetch1: 28000000: 0: 100e4: <assembly>
29000000: system.cpu.writeback: Log4GUI: writeback: 29000000: 0: 100d8: addi x11, x11, 232
29000000: system.cpu.writeback: REGISTERS
29000000: global: x0=0x00000000
29000000: global: x1=0x0001113c
29000000: global: x2=0x0001117c
29000000: global: x3=0x000111c1
29000000: global: x4=0xffffffab
29000000: global: x5=0x00000010
29000000: global: x6=0x00000000
29000000: global: x7=0x00000000
29000000: global: x8=0x000111bd
29000000: global: x9=0x7f800000
29000000: global: x10=0x00000000
29000000: global: x11=0x000111bc
29000000: global: x12=0x00000000
29000000: global: x13=0x00000000
29000000: global: x14=0x00000000
29000000: global: x15=0x00000000
29000000: global: x16=0x00000000
29000000: global: x17=0x00000000
29000000: global: x18=0x00000000
29000000: global: x19=0x00000000
29000000: global: x20=0x00000000
29000000: global: x21=0x00000000
29000000: global: x22=0x00000000
29000000: global: x23=0x00000000
29000000: global: x24=0x00000000
29000000: global: x25=0x00000000
29000000: global: x26=0x00000000
29000000: global: x27=0x00000000
29000000: global: x28=0x00000000
29000000: global: x29=0x00000000
29000000: global: x30=0x00000000
29000000: global: x31=0x00000000
29000000: global: f0=0x00000000
29000000: global: f1=0x4019999a
29000000: global: f2=0x00000000
29000000: global: f3=0xc2aa0000
29000000: global: f4=0x00000000
29000000: global: f5=0x00000000
29000000: global: f6=0x00000000
29000000: global: f7=0x00000000
29000000: global: f8=0x00000000
29000000: global: f9=0x00000000
29000000: global: f10=0x00000000
29000000: global: f11=0x00000000
29000000: global: f12=0x00000000
29000000: global: f13=0x00000000
29000000: global: f14=0x00000000
29000000: global: f15=0x00000000
29000000: global: f16=0x00000000
29000000: global: f17=0x00000000
29000000: global: f18=0x00000000
29000000: global: f19=0x00000000
29000000: global: f20=0x00000000
29000000: global: f21=0x00000000
29000000: global: f22=0x00000000
29000000: global: f23=0x00000000
29000000: global: f24=0x00000000
29000000: global: f25=0x00000000
29000000: global: f26=0x00000000
29000000: global: f27=0x00000000
29000000: global: f28=0x00000000
29000000: global: f29=0x00000000
29000000: global: f30=0x00000000
29000000: global: f31=0x00000000
29000000: system.cpu.memory: Log4GUI: memory: 29000000: 0: 100dc: add x6, x0, x0
29000000: system.cpu.execute: Log4GUI: execute: 29000000: 0: 100e0: slli x7, x6, 2: 0
29000000: system.cpu.decode: Log4GUI: decode: 29000000: 0: 100e4: fmv_w_x f5, x0
29000000: system.cpu.fetch1: Log4GUI: fetch1: 29000000: 0: 100e8: <assembly>
30000000: system.cpu.writeback: Log4GUI: writeback: 30000000: 0: 100dc: add x6, x0, x0
30000000: system.cpu.writeback: REGISTERS
30000000: global: x0=0x00000000
30000000: global: x1=0x0001113c
30000000: global: x2=0x0001117c
30000000: global: x3=0x000111c1
30000000: global: x4=0xffffffab
30000000: global: x5=0x00000010
30000000: global: x6=0x00000000
30000000: global: x7=0x00000000
30000000: global: x8=0x000111bd
30000000: global: x9=0x7f800000
30000000: global: x10=0x00000000
30000000: global: x11=0x000111bc
30000000: global: x12=0x00000000
30000000: global: x13=0x00000000
30000000: global: x14=0x00000000
30000000: global: x15=0x00000000
30000000: global: x16=0x00000000
30000000: global: x17=0x00000000
30000000: global: x18=0x00000000
30000000: global: x19=0x00000000
30000000: global: x20=0x00000000
30000000: global: x21=0x00000000
30000000: global: x22=0x00000000
30000000: global: x23=0x00000000
30000000: global: x24=0x00000000
30000000: global: x25=0x00000000
30000000: global: x26=0x00000000
30000000: global: x27=0x00000000
30000000: global: x28=0x00000000
30000000: global: x29=0x00000000
30000000: global: x30=0x00000000
30000000: global: x31=0x00000000
30000000: global: f0=0x00000000
30000000: global: f1=0x4019999a
30000000: global: f2=0x00000000
30000000: global: f3=0xc2aa0000
30000000: global: f4=0x00000000
30000000: global: f5=0x00000000
30000000: global: f6=0x00000000
30000000: global: f7=0x00000000
30000000: global: f8=0x00000000
30000000: global: f9=0x00000000
30000000: global: f10=0x00000000
30000000: global: f11=0x00000000
30000000: global: f12=0x00000000
30000000: global: f13=0x00000000
30000000: global: f14=0x00000000
30000000: global: f15=0x00000000
30000000: global: f16=0x00000000
30000000: global: f17=0x00000000
30000000: global: f18=0x00000000
30000000: global: f19=0x00000000
30000000: global: f20=0x00000000
30000000: global: f21=0x00000000
30000000: global: f22=0x00000000
30000000: global: f23=0x00000000
30000000: global: f24=0x00000000
30000000: global: f25=0x00000000
30000000: global: f26=0x00000000
30000000: global: f27=0x00000000
30000000: global: f28=0x00000000
30000000: global: f29=0x00000000
30000000: global: f30=0x00000000
30000000: global: f31=0x00000000
30000000: system.cpu.memory: Log4GUI: memory: 30000000: 0: 100e0: slli x7, x6, 2
30000000: system.cpu.execute: Log4GUI: execute: 30000000: 0: 100e4: fmv_w_x f5, x0: 3
30000000: system.cpu.decode: Log4GUI: decode: 30000000: 0: 100e8: beq x6, x5, 40
30000000: system.cpu.fetch1: Log4GUI: fetch1: 30000000: 0: 100ec: <assembly>
31000000: system.cpu.writeback: Log4GUI: writeback: 31000000: 0: 100e0: slli x7, x6, 2
31000000: system.cpu.writeback: REGISTERS
31000000: global: x0=0x00000000
31000000: global: x1=0x0001113c
31000000: global: x2=0x0001117c
31000000: global: x3=0x000111c1
31000000: global: x4=0xffffffab
31000000: global: x5=0x00000010
31000000: global: x6=0x00000000
31000000: global: x7=0x00000000
31000000: global: x8=0x000111bd
31000000: global: x9=0x7f800000
31000000: global: x10=0x00000000
31000000: global: x11=0x000111bc
31000000: global: x12=0x00000000
31000000: global: x13=0x00000000
31000000: global: x14=0x00000000
31000000: global: x15=0x00000000
31000000: global: x16=0x00000000
31000000: global: x17=0x00000000
31000000: global: x18=0x00000000
31000000: global: x19=0x00000000
31000000: global: x20=0x00000000
31000000: global: x21=0x00000000
31000000: global: x22=0x00000000
31000000: global: x23=0x00000000
31000000: global: x24=0x00000000
31000000: global: x25=0x00000000
31000000: global: x26=0x00000000
31000000: global: x27=0x00000000
31000000: global: x28=0x00000000
31000000: global: x29=0x00000000
31000000: global: x30=0x00000000
31000000: global: x31=0x00000000
31000000: global: f0=0x00000000
31000000: global: f1=0x4019999a
31000000: global: f2=0x00000000
31000000: global: f3=0xc2aa0000
31000000: global: f4=0x00000000
31000000: global: f5=0x00000000
31000000: global: f6=0x00000000
31000000: global: f7=0x00000000
31000000: global: f8=0x00000000
31000000: global: f9=0x00000000
31000000: global: f10=0x00000000
31000000: global: f11=0x00000000
31000000: global: f12=0x00000000
31000000: global: f13=0x00000000
31000000: global: f14=0x00000000
31000000: global: f15=0x00000000
31000000: global: f16=0x00000000
31000000: global: f17=0x00000000
31000000: global: f18=0x00000000
31000000: global: f19=0x00000000
31000000: global: f20=0x00000000
31000000: global: f21=0x00000000
31000000: global: f22=0x00000000
31000000: global: f23=0x00000000
31000000: global: f24=0x00000000
31000000: global: f25=0x00000000
31000000: global: f26=0x00000000
31000000: global: f27=0x00000000
31000000: global: f28=0x00000000
31000000: global: f29=0x00000000
31000000: global: f30=0x00000000
31000000: global: f31=0x00000000
31000000: system.cpu.execute: Log4GUI: execute: 31000000: 0: 100e8: beq x6, x5, 40: 0
31000000: system.cpu.execute: Log4GUI: execute: 31000000: 0: 100e4: fmv_w_x f5, x0: 3
31000000: system.cpu.decode: Log4GUI: decode: 31000000: 0: 100ec: add x12, x1, x7
31000000: system.cpu.fetch1: Log4GUI: fetch1: 31000000: 0: 100f0: <assembly>
32000000: system.cpu.memory: Log4GUI: memory: 32000000: 0: 100e8: beq x6, x5, 40
32000000: system.cpu.execute: Log4GUI: execute: 32000000: 0: 100ec: add x12, x1, x7: 0
32000000: system.cpu.execute: Log4GUI: execute: 32000000: 0: 100e4: fmv_w_x f5, x0: 3
32000000: system.cpu.decode: Log4GUI: decode: 32000000: 0: 100f0: flw f1, 0(x12)
32000000: system.cpu.fetch1: Log4GUI: fetch1: 32000000: 0: 100f4: <assembly>
33000000: system.cpu.writeback: Log4GUI: writeback: 33000000: 0: 100e8: beq x6, x5, 40
33000000: system.cpu.writeback: REGISTERS
33000000: global: x0=0x00000000
33000000: global: x1=0x0001113c
33000000: global: x2=0x0001117c
33000000: global: x3=0x000111c1
33000000: global: x4=0xffffffab
33000000: global: x5=0x00000010
33000000: global: x6=0x00000000
33000000: global: x7=0x00000000
33000000: global: x8=0x000111bd
33000000: global: x9=0x7f800000
33000000: global: x10=0x00000000
33000000: global: x11=0x000111bc
33000000: global: x12=0x00000000
33000000: global: x13=0x00000000
33000000: global: x14=0x00000000
33000000: global: x15=0x00000000
33000000: global: x16=0x00000000
33000000: global: x17=0x00000000
33000000: global: x18=0x00000000
33000000: global: x19=0x00000000
33000000: global: x20=0x00000000
33000000: global: x21=0x00000000
33000000: global: x22=0x00000000
33000000: global: x23=0x00000000
33000000: global: x24=0x00000000
33000000: global: x25=0x00000000
33000000: global: x26=0x00000000
33000000: global: x27=0x00000000
33000000: global: x28=0x00000000
33000000: global: x29=0x00000000
33000000: global: x30=0x00000000
33000000: global: x31=0x00000000
33000000: global: f0=0x00000000
33000000: global: f1=0x4019999a
33000000: global: f2=0x00000000
33000000: global: f3=0xc2aa0000
33000000: global: f4=0x00000000
33000000: global: f5=0x00000000
33000000: global: f6=0x00000000
33000000: global: f7=0x00000000
33000000: global: f8=0x00000000
33000000: global: f9=0x00000000
33000000: global: f10=0x00000000
33000000: global: f11=0x00000000
33000000: global: f12=0x00000000
33000000: global: f13=0x00000000
33000000: global: f14=0x00000000
33000000: global: f15=0x00000000
33000000: global: f16=0x00000000
33000000: global: f17=0x00000000
33000000: global: f18=0x00000000
33000000: global: f19=0x00000000
33000000: global: f20=0x00000000
33000000: global: f21=0x00000000
33000000: global: f22=0x00000000
33000000: global: f23=0x00000000
33000000: global: f24=0x00000000
33000000: global: f25=0x00000000
33000000: global: f26=0x00000000
33000000: global: f27=0x00000000
33000000: global: f28=0x00000000
33000000: global: f29=0x00000000
33000000: global: f30=0x00000000
33000000: global: f31=0x00000000
33000000: system.cpu.memory: Log4GUI: memory: 33000000: 0: 100ec: add x12, x1, x7
33000000: system.cpu.execute: Log4GUI: execute: 33000000: 0: 100f0: flw f1, 0(x12): 0
33000000: system.cpu.execute: Log4GUI: execute: 33000000: 0: 100e4: fmv_w_x f5, x0: 3
33000000: system.cpu.decode: Log4GUI: decode: 33000000: 0: 100f4: add x12, x2, x7
33000000: system.cpu.fetch1: Log4GUI: fetch1: 33000000: 0: 100f8: <assembly>
34000000: system.cpu.writeback: Log4GUI: writeback: 34000000: 0: 100ec: add x12, x1, x7
34000000: system.cpu.writeback: REGISTERS
34000000: global: x0=0x00000000
34000000: global: x1=0x0001113c
34000000: global: x2=0x0001117c
34000000: global: x3=0x000111c1
34000000: global: x4=0xffffffab
34000000: global: x5=0x00000010
34000000: global: x6=0x00000000
34000000: global: x7=0x00000000
34000000: global: x8=0x000111bd
34000000: global: x9=0x7f800000
34000000: global: x10=0x00000000
34000000: global: x11=0x000111bc
34000000: global: x12=0x0001113c
34000000: global: x13=0x00000000
34000000: global: x14=0x00000000
34000000: global: x15=0x00000000
34000000: global: x16=0x00000000
34000000: global: x17=0x00000000
34000000: global: x18=0x00000000
34000000: global: x19=0x00000000
34000000: global: x20=0x00000000
34000000: global: x21=0x00000000
34000000: global: x22=0x00000000
34000000: global: x23=0x00000000
34000000: global: x24=0x00000000
34000000: global: x25=0x00000000
34000000: global: x26=0x00000000
34000000: global: x27=0x00000000
34000000: global: x28=0x00000000
34000000: global: x29=0x00000000
34000000: global: x30=0x00000000
34000000: global: x31=0x00000000
34000000: global: f0=0x00000000
34000000: global: f1=0x4019999a
34000000: global: f2=0x00000000
34000000: global: f3=0xc2aa0000
34000000: global: f4=0x00000000
34000000: global: f5=0x00000000
34000000: global: f6=0x00000000
34000000: global: f7=0x00000000
34000000: global: f8=0x00000000
34000000: global: f9=0x00000000
34000000: global: f10=0x00000000
34000000: global: f11=0x00000000
34000000: global: f12=0x00000000
34000000: global: f13=0x00000000
34000000: global: f14=0x00000000
34000000: global: f15=0x00000000
34000000: global: f16=0x00000000
34000000: global: f17=0x00000000
34000000: global: f18=0x00000000
34000000: global: f19=0x00000000
34000000: global: f20=0x00000000
34000000: global: f21=0x00000000
34000000: global: f22=0x00000000
34000000: global: f23=0x00000000
34000000: global: f24=0x00000000
34000000: global: f25=0x00000000
34000000: global: f26=0x00000000
34000000: global: f27=0x00000000
34000000: global: f28=0x00000000
34000000: global: f29=0x00000000
34000000: global: f30=0x00000000
34000000: global: f31=0x00000000
34000000: system.cpu.memory: Log4GUI: memory: 34000000: 0: 100e4: fmv_w_x f5, x0
34000000: system.cpu.decode: Log4GUI: decode: 34000000: 1: 100f4: add x12, x2, x7
34000000: system.cpu.fetch1: Log4GUI: fetch1: 34000000: 1: 100f8: <assembly>
35000000: system.cpu.writeback: Log4GUI: writeback: 35000000: 0: 100e4: fmv_w_x f5, x0
35000000: system.cpu.writeback: REGISTERS
35000000: global: x0=0x00000000
35000000: global: x1=0x0001113c
35000000: global: x2=0x0001117c
35000000: global: x3=0x000111c1
35000000: global: x4=0xffffffab
35000000: global: x5=0x00000010
35000000: global: x6=0x00000000
35000000: global: x7=0x00000000
35000000: global: x8=0x000111bd
35000000: global: x9=0x7f800000
35000000: global: x10=0x00000000
35000000: global: x11=0x000111bc
35000000: global: x12=0x0001113c
35000000: global: x13=0x00000000
35000000: global: x14=0x00000000
35000000: global: x15=0x00000000
35000000: global: x16=0x00000000
35000000: global: x17=0x00000000
35000000: global: x18=0x00000000
35000000: global: x19=0x00000000
35000000: global: x20=0x00000000
35000000: global: x21=0x00000000
35000000: global: x22=0x00000000
35000000: global: x23=0x00000000
35000000: global: x24=0x00000000
35000000: global: x25=0x00000000
35000000: global: x26=0x00000000
35000000: global: x27=0x00000000
35000000: global: x28=0x00000000
35000000: global: x29=0x00000000
35000000: global: x30=0x00000000
35000000: global: x31=0x00000000
35000000: global: f0=0x00000000
35000000: global: f1=0x4019999a
35000000: global: f2=0x00000000
35000000: global: f3=0xc2aa0000
35000000: global: f4=0x00000000
35000000: global: f5=0x00000000
35000000: global: f6=0x00000000
35000000: global: f7=0x00000000
35000000: global: f8=0x00000000
35000000: global: f9=0x00000000
35000000: global: f10=0x00000000
35000000: global: f11=0x00000000
35000000: global: f12=0x00000000
35000000: global: f13=0x00000000
35000000: global: f14=0x00000000
35000000: global: f15=0x00000000
35000000: global: f16=0x00000000
35000000: global: f17=0x00000000
35000000: global: f18=0x00000000
35000000: global: f19=0x00000000
35000000: global: f20=0x00000000
35000000: global: f21=0x00000000
35000000: global: f22=0x00000000
35000000: global: f23=0x00000000
35000000: global: f24=0x00000000
35000000: global: f25=0x00000000
35000000: global: f26=0x00000000
35000000: global: f27=0x00000000
35000000: global: f28=0x00000000
35000000: global: f29=0x00000000
35000000: global: f30=0x00000000
35000000: global: f31=0x00000000
35000000: system.cpu.memory: Log4GUI: memory: 35000000: 0: 100f0: flw f1, 0(x12)
35000000: system.cpu.execute: Log4GUI: execute: 35000000: 0: 100f4: add x12, x2, x7: 0
35000000: system.cpu.decode: Log4GUI: decode: 35000000: 0: 100f8: flw f2, 0(x12)
35000000: system.cpu.fetch1: Log4GUI: fetch1: 35000000: 0: 100fc: <assembly>
36000000: system.cpu.writeback: Log4GUI: writeback: 36000000: 0: 100f0: flw f1, 0(x12)
36000000: system.cpu.writeback: REGISTERS
36000000: global: x0=0x00000000
36000000: global: x1=0x0001113c
36000000: global: x2=0x0001117c
36000000: global: x3=0x000111c1
36000000: global: x4=0xffffffab
36000000: global: x5=0x00000010
36000000: global: x6=0x00000000
36000000: global: x7=0x00000000
36000000: global: x8=0x000111bd
36000000: global: x9=0x7f800000
36000000: global: x10=0x00000000
36000000: global: x11=0x000111bc
36000000: global: x12=0x0001113c
36000000: global: x13=0x00000000
36000000: global: x14=0x00000000
36000000: global: x15=0x00000000
36000000: global: x16=0x00000000
36000000: global: x17=0x00000000
36000000: global: x18=0x00000000
36000000: global: x19=0x00000000
36000000: global: x20=0x00000000
36000000: global: x21=0x00000000
36000000: global: x22=0x00000000
36000000: global: x23=0x00000000
36000000: global: x24=0x00000000
36000000: global: x25=0x00000000
36000000: global: x26=0x00000000
36000000: global: x27=0x00000000
36000000: global: x28=0x00000000
36000000: global: x29=0x00000000
36000000: global: x30=0x00000000
36000000: global: x31=0x00000000
36000000: global: f0=0x00000000
36000000: global: f1=0x40933333
36000000: global: f2=0x00000000
36000000: global: f3=0xc2aa0000
36000000: global: f4=0x00000000
36000000: global: f5=0x00000000
36000000: global: f6=0x00000000
36000000: global: f7=0x00000000
36000000: global: f8=0x00000000
36000000: global: f9=0x00000000
36000000: global: f10=0x00000000
36000000: global: f11=0x00000000
36000000: global: f12=0x00000000
36000000: global: f13=0x00000000
36000000: global: f14=0x00000000
36000000: global: f15=0x00000000
36000000: global: f16=0x00000000
36000000: global: f17=0x00000000
36000000: global: f18=0x00000000
36000000: global: f19=0x00000000
36000000: global: f20=0x00000000
36000000: global: f21=0x00000000
36000000: global: f22=0x00000000
36000000: global: f23=0x00000000
36000000: global: f24=0x00000000
36000000: global: f25=0x00000000
36000000: global: f26=0x00000000
36000000: global: f27=0x00000000
36000000: global: f28=0x00000000
36000000: global: f29=0x00000000
36000000: global: f30=0x00000000
36000000: global: f31=0x00000000
36000000: system.cpu.memory: Log4GUI: memory: 36000000: 0: 100f4: add x12, x2, x7
36000000: system.cpu.execute: Log4GUI: execute: 36000000: 0: 100f8: flw f2, 0(x12): 0
36000000: system.cpu.decode: Log4GUI: decode: 36000000: 0: 100fc: fmul_s f4, f1, f2
36000000: system.cpu.fetch1: Log4GUI: fetch1: 36000000: 0: 10100: <assembly>
37000000: system.cpu.writeback: Log4GUI: writeback: 37000000: 0: 100f4: add x12, x2, x7
37000000: system.cpu.writeback: REGISTERS
37000000: global: x0=0x00000000
37000000: global: x1=0x0001113c
37000000: global: x2=0x0001117c
37000000: global: x3=0x000111c1
37000000: global: x4=0xffffffab
37000000: global: x5=0x00000010
37000000: global: x6=0x00000000
37000000: global: x7=0x00000000
37000000: global: x8=0x000111bd
37000000: global: x9=0x7f800000
37000000: global: x10=0x00000000
37000000: global: x11=0x000111bc
37000000: global: x12=0x0001117c
37000000: global: x13=0x00000000
37000000: global: x14=0x00000000
37000000: global: x15=0x00000000
37000000: global: x16=0x00000000
37000000: global: x17=0x00000000
37000000: global: x18=0x00000000
37000000: global: x19=0x00000000
37000000: global: x20=0x00000000
37000000: global: x21=0x00000000
37000000: global: x22=0x00000000
37000000: global: x23=0x00000000
37000000: global: x24=0x00000000
37000000: global: x25=0x00000000
37000000: global: x26=0x00000000
37000000: global: x27=0x00000000
37000000: global: x28=0x00000000
37000000: global: x29=0x00000000
37000000: global: x30=0x00000000
37000000: global: x31=0x00000000
37000000: global: f0=0x00000000
37000000: global: f1=0x40933333
37000000: global: f2=0x00000000
37000000: global: f3=0xc2aa0000
37000000: global: f4=0x00000000
37000000: global: f5=0x00000000
37000000: global: f6=0x00000000
37000000: global: f7=0x00000000
37000000: global: f8=0x00000000
37000000: global: f9=0x00000000
37000000: global: f10=0x00000000
37000000: global: f11=0x00000000
37000000: global: f12=0x00000000
37000000: global: f13=0x00000000
37000000: global: f14=0x00000000
37000000: global: f15=0x00000000
37000000: global: f16=0x00000000
37000000: global: f17=0x00000000
37000000: global: f18=0x00000000
37000000: global: f19=0x00000000
37000000: global: f20=0x00000000
37000000: global: f21=0x00000000
37000000: global: f22=0x00000000
37000000: global: f23=0x00000000
37000000: global: f24=0x00000000
37000000: global: f25=0x00000000
37000000: global: f26=0x00000000
37000000: global: f27=0x00000000
37000000: global: f28=0x00000000
37000000: global: f29=0x00000000
37000000: global: f30=0x00000000
37000000: global: f31=0x00000000
37000000: system.cpu.memory: Log4GUI: memory: 37000000: 0: 100f8: flw f2, 0(x12)
37000000: system.cpu.decode: Log4GUI: decode: 37000000: 1: 100fc: fmul_s f4, f1, f2
37000000: system.cpu.fetch1: Log4GUI: fetch1: 37000000: 1: 10100: <assembly>
38000000: system.cpu.writeback: Log4GUI: writeback: 38000000: 0: 100f8: flw f2, 0(x12)
38000000: system.cpu.writeback: REGISTERS
38000000: global: x0=0x00000000
38000000: global: x1=0x0001113c
38000000: global: x2=0x0001117c
38000000: global: x3=0x000111c1
38000000: global: x4=0xffffffab
38000000: global: x5=0x00000010
38000000: global: x6=0x00000000
38000000: global: x7=0x00000000
38000000: global: x8=0x000111bd
38000000: global: x9=0x7f800000
38000000: global: x10=0x00000000
38000000: global: x11=0x000111bc
38000000: global: x12=0x0001117c
38000000: global: x13=0x00000000
38000000: global: x14=0x00000000
38000000: global: x15=0x00000000
38000000: global: x16=0x00000000
38000000: global: x17=0x00000000
38000000: global: x18=0x00000000
38000000: global: x19=0x00000000
38000000: global: x20=0x00000000
38000000: global: x21=0x00000000
38000000: global: x22=0x00000000
38000000: global: x23=0x00000000
38000000: global: x24=0x00000000
38000000: global: x25=0x00000000
38000000: global: x26=0x00000000
38000000: global: x27=0x00000000
38000000: global: x28=0x00000000
38000000: global: x29=0x00000000
38000000: global: x30=0x00000000
38000000: global: x31=0x00000000
38000000: global: f0=0x00000000
38000000: global: f1=0x40933333
38000000: global: f2=0x4019999a
38000000: global: f3=0xc2aa0000
38000000: global: f4=0x00000000
38000000: global: f5=0x00000000
38000000: global: f6=0x00000000
38000000: global: f7=0x00000000
38000000: global: f8=0x00000000
38000000: global: f9=0x00000000
38000000: global: f10=0x00000000
38000000: global: f11=0x00000000
38000000: global: f12=0x00000000
38000000: global: f13=0x00000000
38000000: global: f14=0x00000000
38000000: global: f15=0x00000000
38000000: global: f16=0x00000000
38000000: global: f17=0x00000000
38000000: global: f18=0x00000000
38000000: global: f19=0x00000000
38000000: global: f20=0x00000000
38000000: global: f21=0x00000000
38000000: global: f22=0x00000000
38000000: global: f23=0x00000000
38000000: global: f24=0x00000000
38000000: global: f25=0x00000000
38000000: global: f26=0x00000000
38000000: global: f27=0x00000000
38000000: global: f28=0x00000000
38000000: global: f29=0x00000000
38000000: global: f30=0x00000000
38000000: global: f31=0x00000000
38000000: system.cpu.execute: Log4GUI: execute: 38000000: 0: 100fc: fmul_s f4, f1, f2: 4
38000000: system.cpu.decode: Log4GUI: decode: 38000000: 0: 10100: fadd_s f4, f4, f3
38000000: system.cpu.fetch1: Log4GUI: fetch1: 38000000: 0: 10104: <assembly>
39000000: system.cpu.execute: Log4GUI: execute: 39000000: 0: 100fc: fmul_s f4, f1, f2: 4
39000000: system.cpu.decode: Log4GUI: decode: 39000000: 1: 10100: fadd_s f4, f4, f3
39000000: system.cpu.fetch1: Log4GUI: fetch1: 39000000: 1: 10104: <assembly>
40000000: system.cpu.execute: Log4GUI: execute: 40000000: 0: 100fc: fmul_s f4, f1, f2: 4
40000000: system.cpu.decode: Log4GUI: decode: 40000000: 1: 10100: fadd_s f4, f4, f3
40000000: system.cpu.fetch1: Log4GUI: fetch1: 40000000: 1: 10104: <assembly>
41000000: system.cpu.execute: Log4GUI: execute: 41000000: 0: 100fc: fmul_s f4, f1, f2: 4
41000000: system.cpu.decode: Log4GUI: decode: 41000000: 1: 10100: fadd_s f4, f4, f3
41000000: system.cpu.fetch1: Log4GUI: fetch1: 41000000: 1: 10104: <assembly>
42000000: system.cpu.execute: Log4GUI: execute: 42000000: 0: 100fc: fmul_s f4, f1, f2: 4
42000000: system.cpu.decode: Log4GUI: decode: 42000000: 1: 10100: fadd_s f4, f4, f3
42000000: system.cpu.fetch1: Log4GUI: fetch1: 42000000: 1: 10104: <assembly>
43000000: system.cpu.execute: Log4GUI: execute: 43000000: 0: 100fc: fmul_s f4, f1, f2: 4
43000000: system.cpu.decode: Log4GUI: decode: 43000000: 1: 10100: fadd_s f4, f4, f3
43000000: system.cpu.fetch1: Log4GUI: fetch1: 43000000: 1: 10104: <assembly>
44000000: system.cpu.execute: Log4GUI: execute: 44000000: 0: 100fc: fmul_s f4, f1, f2: 4
44000000: system.cpu.decode: Log4GUI: decode: 44000000: 1: 10100: fadd_s f4, f4, f3
44000000: system.cpu.fetch1: Log4GUI: fetch1: 44000000: 1: 10104: <assembly>
45000000: system.cpu.execute: Log4GUI: execute: 45000000: 0: 100fc: fmul_s f4, f1, f2: 4
45000000: system.cpu.decode: Log4GUI: decode: 45000000: 1: 10100: fadd_s f4, f4, f3
45000000: system.cpu.fetch1: Log4GUI: fetch1: 45000000: 1: 10104: <assembly>
46000000: system.cpu.memory: Log4GUI: memory: 46000000: 0: 100fc: fmul_s f4, f1, f2
46000000: system.cpu.execute: Log4GUI: execute: 46000000: 0: 10100: fadd_s f4, f4, f3: 3
46000000: system.cpu.decode: Log4GUI: decode: 46000000: 0: 10104: addi x6, x6, 1
46000000: system.cpu.fetch1: Log4GUI: fetch1: 46000000: 0: 10108: <assembly>
47000000: system.cpu.writeback: Log4GUI: writeback: 47000000: 0: 100fc: fmul_s f4, f1, f2
47000000: system.cpu.writeback: REGISTERS
47000000: global: x0=0x00000000
47000000: global: x1=0x0001113c
47000000: global: x2=0x0001117c
47000000: global: x3=0x000111c1
47000000: global: x4=0xffffffab
47000000: global: x5=0x00000010
47000000: global: x6=0x00000000
47000000: global: x7=0x00000000
47000000: global: x8=0x000111bd
47000000: global: x9=0x7f800000
47000000: global: x10=0x00000000
47000000: global: x11=0x000111bc
47000000: global: x12=0x0001117c
47000000: global: x13=0x00000000
47000000: global: x14=0x00000000
47000000: global: x15=0x00000000
47000000: global: x16=0x00000000
47000000: global: x17=0x00000000
47000000: global: x18=0x00000000
47000000: global: x19=0x00000000
47000000: global: x20=0x00000000
47000000: global: x21=0x00000000
47000000: global: x22=0x00000000
47000000: global: x23=0x00000000
47000000: global: x24=0x00000000
47000000: global: x25=0x00000000
47000000: global: x26=0x00000000
47000000: global: x27=0x00000000
47000000: global: x28=0x00000000
47000000: global: x29=0x00000000
47000000: global: x30=0x00000000
47000000: global: x31=0x00000000
47000000: global: f0=0x00000000
47000000: global: f1=0x40933333
47000000: global: f2=0x4019999a
47000000: global: f3=0xc2aa0000
47000000: global: f4=0x4130a3d7
47000000: global: f5=0x00000000
47000000: global: f6=0x00000000
47000000: global: f7=0x00000000
47000000: global: f8=0x00000000
47000000: global: f9=0x00000000
47000000: global: f10=0x00000000
47000000: global: f11=0x00000000
47000000: global: f12=0x00000000
47000000: global: f13=0x00000000
47000000: global: f14=0x00000000
47000000: global: f15=0x00000000
47000000: global: f16=0x00000000
47000000: global: f17=0x00000000
47000000: global: f18=0x00000000
47000000: global: f19=0x00000000
47000000: global: f20=0x00000000
47000000: global: f21=0x00000000
47000000: global: f22=0x00000000
47000000: global: f23=0x00000000
47000000: global: f24=0x00000000
47000000: global: f25=0x00000000
47000000: global: f26=0x00000000
47000000: global: f27=0x00000000
47000000: global: f28=0x00000000
47000000: global: f29=0x00000000
47000000: global: f30=0x00000000
47000000: global: f31=0x00000000
47000000: system.cpu.execute: Log4GUI: execute: 47000000: 0: 10104: addi x6, x6, 1: 0
47000000: system.cpu.execute: Log4GUI: execute: 47000000: 0: 10100: fadd_s f4, f4, f3: 3
47000000: system.cpu.decode: Log4GUI: decode: 47000000: 0: 10108: slli x7, x6, 2
47000000: system.cpu.fetch1: Log4GUI: fetch1: 47000000: 0: 1010c: <assembly>
48000000: system.cpu.memory: Log4GUI: memory: 48000000: 0: 10104: addi x6, x6, 1
48000000: system.cpu.execute: Log4GUI: execute: 48000000: 0: 10108: slli x7, x6, 2: 0
48000000: system.cpu.execute: Log4GUI: execute: 48000000: 0: 10100: fadd_s f4, f4, f3: 3
48000000: system.cpu.decode: Log4GUI: decode: 48000000: 0: 1010c: jal x0, -36
48000000: system.cpu.fetch1: Log4GUI: fetch1: 48000000: 0: 10110: <assembly>
49000000: system.cpu.writeback: Log4GUI: writeback: 49000000: 0: 10104: addi x6, x6, 1
49000000: system.cpu.writeback: REGISTERS
49000000: global: x0=0x00000000
49000000: global: x1=0x0001113c
49000000: global: x2=0x0001117c
49000000: global: x3=0x000111c1
49000000: global: x4=0xffffffab
49000000: global: x5=0x00000010
49000000: global: x6=0x00000001
49000000: global: x7=0x00000000
49000000: global: x8=0x000111bd
49000000: global: x9=0x7f800000
49000000: global: x10=0x00000000
49000000: global: x11=0x000111bc
49000000: global: x12=0x0001117c
49000000: global: x13=0x00000000
49000000: global: x14=0x00000000
49000000: global: x15=0x00000000
49000000: global: x16=0x00000000
49000000: global: x17=0x00000000
49000000: global: x18=0x00000000
49000000: global: x19=0x00000000
49000000: global: x20=0x00000000
49000000: global: x21=0x00000000
49000000: global: x22=0x00000000
49000000: global: x23=0x00000000
49000000: global: x24=0x00000000
49000000: global: x25=0x00000000
49000000: global: x26=0x00000000
49000000: global: x27=0x00000000
49000000: global: x28=0x00000000
49000000: global: x29=0x00000000
49000000: global: x30=0x00000000
49000000: global: x31=0x00000000
49000000: global: f0=0x00000000
49000000: global: f1=0x40933333
49000000: global: f2=0x4019999a
49000000: global: f3=0xc2aa0000
49000000: global: f4=0x4130a3d7
49000000: global: f5=0x00000000
49000000: global: f6=0x00000000
49000000: global: f7=0x00000000
49000000: global: f8=0x00000000
49000000: global: f9=0x00000000
49000000: global: f10=0x00000000
49000000: global: f11=0x00000000
49000000: global: f12=0x00000000
49000000: global: f13=0x00000000
49000000: global: f14=0x00000000
49000000: global: f15=0x00000000
49000000: global: f16=0x00000000
49000000: global: f17=0x00000000
49000000: global: f18=0x00000000
49000000: global: f19=0x00000000
49000000: global: f20=0x00000000
49000000: global: f21=0x00000000
49000000: global: f22=0x00000000
49000000: global: f23=0x00000000
49000000: global: f24=0x00000000
49000000: global: f25=0x00000000
49000000: global: f26=0x00000000
49000000: global: f27=0x00000000
49000000: global: f28=0x00000000
49000000: global: f29=0x00000000
49000000: global: f30=0x00000000
49000000: global: f31=0x00000000
49000000: system.cpu.memory: Log4GUI: memory: 49000000: 0: 10108: slli x7, x6, 2
49000000: system.cpu.execute: Log4GUI: execute: 49000000: 0: 1010c: jal x0, -36: 0
49000000: system.cpu.execute: Log4GUI: execute: 49000000: 0: 10100: fadd_s f4, f4, f3: 3
49000000: system.cpu.fetch1: Log4GUI: fetch1: 49000000: 0: 100e8: <assembly>
50000000: system.cpu.writeback: Log4GUI: writeback: 50000000: 0: 10108: slli x7, x6, 2
50000000: system.cpu.writeback: REGISTERS
50000000: global: x0=0x00000000
50000000: global: x1=0x0001113c
50000000: global: x2=0x0001117c
50000000: global: x3=0x000111c1
50000000: global: x4=0xffffffab
50000000: global: x5=0x00000010
50000000: global: x6=0x00000001
50000000: global: x7=0x00000004
50000000: global: x8=0x000111bd
50000000: global: x9=0x7f800000
50000000: global: x10=0x00000000
50000000: global: x11=0x000111bc
50000000: global: x12=0x0001117c
50000000: global: x13=0x00000000
50000000: global: x14=0x00000000
50000000: global: x15=0x00000000
50000000: global: x16=0x00000000
50000000: global: x17=0x00000000
50000000: global: x18=0x00000000
50000000: global: x19=0x00000000
50000000: global: x20=0x00000000
50000000: global: x21=0x00000000
50000000: global: x22=0x00000000
50000000: global: x23=0x00000000
50000000: global: x24=0x00000000
50000000: global: x25=0x00000000
50000000: global: x26=0x00000000
50000000: global: x27=0x00000000
50000000: global: x28=0x00000000
50000000: global: x29=0x00000000
50000000: global: x30=0x00000000
50000000: global: x31=0x00000000
50000000: global: f0=0x00000000
50000000: global: f1=0x40933333
50000000: global: f2=0x4019999a
50000000: global: f3=0xc2aa0000
50000000: global: f4=0x4130a3d7
50000000: global: f5=0x00000000
50000000: global: f6=0x00000000
50000000: global: f7=0x00000000
50000000: global: f8=0x00000000
50000000: global: f9=0x00000000
50000000: global: f10=0x00000000
50000000: global: f11=0x00000000
50000000: global: f12=0x00000000
50000000: global: f13=0x00000000
50000000: global: f14=0x00000000
50000000: global: f15=0x00000000
50000000: global: f16=0x00000000
50000000: global: f17=0x00000000
50000000: global: f18=0x00000000
50000000: global: f19=0x00000000
50000000: global: f20=0x00000000
50000000: global: f21=0x00000000
50000000: global: f22=0x00000000
50000000: global: f23=0x00000000
50000000: global: f24=0x00000000
50000000: global: f25=0x00000000
50000000: global: f26=0x00000000
50000000: global: f27=0x00000000
50000000: global: f28=0x00000000
50000000: global: f29=0x00000000
50000000: global: f30=0x00000000
50000000: global: f31=0x00000000
50000000: system.cpu.memory: Log4GUI: memory: 50000000: 0: 10100: fadd_s f4, f4, f3
50000000: system.cpu.decode: Log4GUI: decode: 50000000: 0: 100e8: beq x6, x5, 40
50000000: system.cpu.fetch1: Log4GUI: fetch1: 50000000: 0: 100ec: <assembly>
51000000: system.cpu.writeback: Log4GUI: writeback: 51000000: 0: 10100: fadd_s f4, f4, f3
51000000: system.cpu.writeback: REGISTERS
51000000: global: x0=0x00000000
51000000: global: x1=0x0001113c
51000000: global: x2=0x0001117c
51000000: global: x3=0x000111c1
51000000: global: x4=0xffffffab
51000000: global: x5=0x00000010
51000000: global: x6=0x00000001
51000000: global: x7=0x00000004
51000000: global: x8=0x000111bd
51000000: global: x9=0x7f800000
51000000: global: x10=0x00000000
51000000: global: x11=0x000111bc
51000000: global: x12=0x0001117c
51000000: global: x13=0x00000000
51000000: global: x14=0x00000000
51000000: global: x15=0x00000000
51000000: global: x16=0x00000000
51000000: global: x17=0x00000000
51000000: global: x18=0x00000000
51000000: global: x19=0x00000000
51000000: global: x20=0x00000000
51000000: global: x21=0x00000000
51000000: global: x22=0x00000000
51000000: global: x23=0x00000000
51000000: global: x24=0x00000000
51000000: global: x25=0x00000000
51000000: global: x26=0x00000000
[...]
341000000: system.cpu.decode: Log4GUI: decode: 341000000: 1: 10114: fmv_x_w x10, f4
341000000: system.cpu.fetch1: Log4GUI: fetch1: 341000000: 1: 10118: <assembly>
342000000: system.cpu.memory: Log4GUI: memory: 342000000: 0: 10110: fadd_s f4, f3, f4
342000000: system.cpu.execute: Log4GUI: execute: 342000000: 0: 10114: fmv_x_w x10, f4: 3
342000000: system.cpu.decode: Log4GUI: decode: 342000000: 0: 10118: and x10, x10, x9
342000000: system.cpu.fetch1: Log4GUI: fetch1: 342000000: 0: 1011c: <assembly>
343000000: system.cpu.writeback: Log4GUI: writeback: 343000000: 0: 10110: fadd_s f4, f3, f4
343000000: system.cpu.writeback: REGISTERS
343000000: global: x0=0x00000000
343000000: global: x1=0x0001113c
343000000: global: x2=0x0001117c
343000000: global: x3=0x000111c1
343000000: global: x4=0xffffffab
343000000: global: x5=0x00000010
343000000: global: x6=0x00000010
343000000: global: x7=0x00000040
343000000: global: x8=0x000111bd
343000000: global: x9=0x7f800000
343000000: global: x10=0x00000000
343000000: global: x11=0x000111bc
343000000: global: x12=0x000111b8
343000000: global: x13=0x00000000
343000000: global: x14=0x00000000
343000000: global: x15=0x00000000
343000000: global: x16=0x00000000
343000000: global: x17=0x00000000
343000000: global: x18=0x00000000
343000000: global: x19=0x00000000
343000000: global: x20=0x00000000
343000000: global: x21=0x00000000
343000000: global: x22=0x00000000
343000000: global: x23=0x00000000
343000000: global: x24=0x00000000
343000000: global: x25=0x00000000
343000000: global: x26=0x00000000
343000000: global: x27=0x00000000
343000000: global: x28=0x00000000
343000000: global: x29=0x00000000
343000000: global: x30=0x00000000
343000000: global: x31=0x00000000
343000000: global: f0=0x00000000
343000000: global: f1=0x4101999a
343000000: global: f2=0x3f800000
343000000: global: f3=0xc2aa0000
343000000: global: f4=0xc321e666
343000000: global: f5=0x00000000
343000000: global: f6=0x00000000
343000000: global: f7=0x00000000
343000000: global: f8=0x00000000
343000000: global: f9=0x00000000
343000000: global: f10=0x00000000
343000000: global: f11=0x00000000
343000000: global: f12=0x00000000
343000000: global: f13=0x00000000
343000000: global: f14=0x00000000
343000000: global: f15=0x00000000
343000000: global: f16=0x00000000
343000000: global: f17=0x00000000
343000000: global: f18=0x00000000
343000000: global: f19=0x00000000
343000000: global: f20=0x00000000
343000000: global: f21=0x00000000
343000000: global: f22=0x00000000
343000000: global: f23=0x00000000
343000000: global: f24=0x00000000
343000000: global: f25=0x00000000
343000000: global: f26=0x00000000
343000000: global: f27=0x00000000
343000000: global: f28=0x00000000
343000000: global: f29=0x00000000
343000000: global: f30=0x00000000
343000000: global: f31=0x00000000
343000000: system.cpu.execute: Log4GUI: execute: 343000000: 0: 10114: fmv_x_w x10, f4: 3
343000000: system.cpu.decode: Log4GUI: decode: 343000000: 1: 10118: and x10, x10, x9
343000000: system.cpu.fetch1: Log4GUI: fetch1: 343000000: 1: 1011c: <assembly>
344000000: system.cpu.execute: Log4GUI: execute: 344000000: 0: 10114: fmv_x_w x10, f4: 3
344000000: system.cpu.decode: Log4GUI: decode: 344000000: 1: 10118: and x10, x10, x9
344000000: system.cpu.fetch1: Log4GUI: fetch1: 344000000: 1: 1011c: <assembly>
345000000: system.cpu.execute: Log4GUI: execute: 345000000: 0: 10114: fmv_x_w x10, f4: 3
345000000: system.cpu.decode: Log4GUI: decode: 345000000: 1: 10118: and x10, x10, x9
345000000: system.cpu.fetch1: Log4GUI: fetch1: 345000000: 1: 1011c: <assembly>
346000000: system.cpu.memory: Log4GUI: memory: 346000000: 0: 10114: fmv_x_w x10, f4
346000000: system.cpu.execute: Log4GUI: execute: 346000000: 0: 10118: and x10, x10, x9: 0
346000000: system.cpu.decode: Log4GUI: decode: 346000000: 0: 1011c: beq x10, x9, 12
346000000: system.cpu.fetch1: Log4GUI: fetch1: 346000000: 0: 10120: <assembly>
347000000: system.cpu.writeback: Log4GUI: writeback: 347000000: 0: 10114: fmv_x_w x10, f4
347000000: system.cpu.writeback: REGISTERS
347000000: global: x0=0x00000000
347000000: global: x1=0x0001113c
347000000: global: x2=0x0001117c
347000000: global: x3=0x000111c1
347000000: global: x4=0xffffffab
347000000: global: x5=0x00000010
347000000: global: x6=0x00000010
347000000: global: x7=0x00000040
347000000: global: x8=0x000111bd
347000000: global: x9=0x7f800000
347000000: global: x10=0xc321e666
347000000: global: x11=0x000111bc
347000000: global: x12=0x000111b8
347000000: global: x13=0x00000000
347000000: global: x14=0x00000000
347000000: global: x15=0x00000000
347000000: global: x16=0x00000000
347000000: global: x17=0x00000000
347000000: global: x18=0x00000000
347000000: global: x19=0x00000000
347000000: global: x20=0x00000000
347000000: global: x21=0x00000000
347000000: global: x22=0x00000000
347000000: global: x23=0x00000000
347000000: global: x24=0x00000000
347000000: global: x25=0x00000000
347000000: global: x26=0x00000000
347000000: global: x27=0x00000000
347000000: global: x28=0x00000000
347000000: global: x29=0x00000000
347000000: global: x30=0x00000000
347000000: global: x31=0x00000000
347000000: global: f0=0x00000000
347000000: global: f1=0x4101999a
347000000: global: f2=0x3f800000
347000000: global: f3=0xc2aa0000
347000000: global: f4=0xc321e666
347000000: global: f5=0x00000000
347000000: global: f6=0x00000000
347000000: global: f7=0x00000000
347000000: global: f8=0x00000000
347000000: global: f9=0x00000000
347000000: global: f10=0x00000000
347000000: global: f11=0x00000000
347000000: global: f12=0x00000000
347000000: global: f13=0x00000000
347000000: global: f14=0x00000000
347000000: global: f15=0x00000000
347000000: global: f16=0x00000000
347000000: global: f17=0x00000000
347000000: global: f18=0x00000000
347000000: global: f19=0x00000000
347000000: global: f20=0x00000000
347000000: global: f21=0x00000000
347000000: global: f22=0x00000000
347000000: global: f23=0x00000000
347000000: global: f24=0x00000000
347000000: global: f25=0x00000000
347000000: global: f26=0x00000000
347000000: global: f27=0x00000000
347000000: global: f28=0x00000000
347000000: global: f29=0x00000000
347000000: global: f30=0x00000000
347000000: global: f31=0x00000000
347000000: system.cpu.memory: Log4GUI: memory: 347000000: 0: 10118: and x10, x10, x9
347000000: system.cpu.decode: Log4GUI: decode: 347000000: 1: 1011c: beq x10, x9, 12
347000000: system.cpu.fetch1: Log4GUI: fetch1: 347000000: 1: 10120: <assembly>
348000000: system.cpu.writeback: Log4GUI: writeback: 348000000: 0: 10118: and x10, x10, x9
348000000: system.cpu.writeback: REGISTERS
348000000: global: x0=0x00000000
348000000: global: x1=0x0001113c
348000000: global: x2=0x0001117c
348000000: global: x3=0x000111c1
348000000: global: x4=0xffffffab
348000000: global: x5=0x00000010
348000000: global: x6=0x00000010
348000000: global: x7=0x00000040
348000000: global: x8=0x000111bd
348000000: global: x9=0x7f800000
348000000: global: x10=0x43000000
348000000: global: x11=0x000111bc
348000000: global: x12=0x000111b8
348000000: global: x13=0x00000000
348000000: global: x14=0x00000000
348000000: global: x15=0x00000000
348000000: global: x16=0x00000000
348000000: global: x17=0x00000000
348000000: global: x18=0x00000000
348000000: global: x19=0x00000000
348000000: global: x20=0x00000000
348000000: global: x21=0x00000000
348000000: global: x22=0x00000000
348000000: global: x23=0x00000000
348000000: global: x24=0x00000000
348000000: global: x25=0x00000000
348000000: global: x26=0x00000000
348000000: global: x27=0x00000000
348000000: global: x28=0x00000000
348000000: global: x29=0x00000000
348000000: global: x30=0x00000000
348000000: global: x31=0x00000000
348000000: global: f0=0x00000000
348000000: global: f1=0x4101999a
348000000: global: f2=0x3f800000
348000000: global: f3=0xc2aa0000
348000000: global: f4=0xc321e666
348000000: global: f5=0x00000000
348000000: global: f6=0x00000000
348000000: global: f7=0x00000000
348000000: global: f8=0x00000000
348000000: global: f9=0x00000000
348000000: global: f10=0x00000000
348000000: global: f11=0x00000000
348000000: global: f12=0x00000000
348000000: global: f13=0x00000000
348000000: global: f14=0x00000000
348000000: global: f15=0x00000000
348000000: global: f16=0x00000000
348000000: global: f17=0x00000000
348000000: global: f18=0x00000000
348000000: global: f19=0x00000000
348000000: global: f20=0x00000000
348000000: global: f21=0x00000000
348000000: global: f22=0x00000000
348000000: global: f23=0x00000000
348000000: global: f24=0x00000000
348000000: global: f25=0x00000000
348000000: global: f26=0x00000000
348000000: global: f27=0x00000000
348000000: global: f28=0x00000000
348000000: global: f29=0x00000000
348000000: global: f30=0x00000000
348000000: global: f31=0x00000000
348000000: system.cpu.execute: Log4GUI: execute: 348000000: 0: 1011c: beq x10, x9, 12: 0
348000000: system.cpu.decode: Log4GUI: decode: 348000000: 0: 10120: fsw f4, 0(x11)
348000000: system.cpu.fetch1: Log4GUI: fetch1: 348000000: 0: 10124: <assembly>
349000000: system.cpu.memory: Log4GUI: memory: 349000000: 0: 1011c: beq x10, x9, 12
349000000: system.cpu.execute: Log4GUI: execute: 349000000: 0: 10120: fsw f4, 0(x11): 0
349000000: system.cpu.decode: Log4GUI: decode: 349000000: 0: 10124: jal x0, 12
349000000: system.cpu.fetch1: Log4GUI: fetch1: 349000000: 0: 10128: <assembly>
350000000: system.cpu.writeback: Log4GUI: writeback: 350000000: 0: 1011c: beq x10, x9, 12
350000000: system.cpu.writeback: REGISTERS
350000000: global: x0=0x00000000
350000000: global: x1=0x0001113c
350000000: global: x2=0x0001117c
350000000: global: x3=0x000111c1
350000000: global: x4=0xffffffab
350000000: global: x5=0x00000010
350000000: global: x6=0x00000010
350000000: global: x7=0x00000040
350000000: global: x8=0x000111bd
350000000: global: x9=0x7f800000
350000000: global: x10=0x43000000
350000000: global: x11=0x000111bc
350000000: global: x12=0x000111b8
350000000: global: x13=0x00000000
350000000: global: x14=0x00000000
350000000: global: x15=0x00000000
350000000: global: x16=0x00000000
350000000: global: x17=0x00000000
350000000: global: x18=0x00000000
350000000: global: x19=0x00000000
350000000: global: x20=0x00000000
350000000: global: x21=0x00000000
350000000: global: x22=0x00000000
350000000: global: x23=0x00000000
350000000: global: x24=0x00000000
350000000: global: x25=0x00000000
350000000: global: x26=0x00000000
350000000: global: x27=0x00000000
350000000: global: x28=0x00000000
350000000: global: x29=0x00000000
350000000: global: x30=0x00000000
350000000: global: x31=0x00000000
350000000: global: f0=0x00000000
350000000: global: f1=0x4101999a
350000000: global: f2=0x3f800000
350000000: global: f3=0xc2aa0000
350000000: global: f4=0xc321e666
350000000: global: f5=0x00000000
350000000: global: f6=0x00000000
350000000: global: f7=0x00000000
350000000: global: f8=0x00000000
350000000: global: f9=0x00000000
350000000: global: f10=0x00000000
350000000: global: f11=0x00000000
350000000: global: f12=0x00000000
350000000: global: f13=0x00000000
350000000: global: f14=0x00000000
350000000: global: f15=0x00000000
350000000: global: f16=0x00000000
350000000: global: f17=0x00000000
350000000: global: f18=0x00000000
350000000: global: f19=0x00000000
350000000: global: f20=0x00000000
350000000: global: f21=0x00000000
350000000: global: f22=0x00000000
350000000: global: f23=0x00000000
350000000: global: f24=0x00000000
350000000: global: f25=0x00000000
350000000: global: f26=0x00000000
350000000: global: f27=0x00000000
350000000: global: f28=0x00000000
350000000: global: f29=0x00000000
350000000: global: f30=0x00000000
350000000: global: f31=0x00000000
350000000: system.cpu.memory: Log4GUI: memory: 350000000: 0: 10120: fsw f4, 0(x11)
350000000: system.cpu.execute: Log4GUI: execute: 350000000: 0: 10124: jal x0, 12: 0
350000000: system.cpu.fetch1: Log4GUI: fetch1: 350000000: 0: 10130: <assembly>
351000000: system.cpu.writeback: Log4GUI: writeback: 351000000: 0: 10120: fsw f4, 0(x11)
351000000: system.cpu.writeback: REGISTERS
351000000: global: x0=0x00000000
351000000: global: x1=0x0001113c
351000000: global: x2=0x0001117c
351000000: global: x3=0x000111c1
351000000: global: x4=0xffffffab
351000000: global: x5=0x00000010
351000000: global: x6=0x00000010
351000000: global: x7=0x00000040
351000000: global: x8=0x000111bd
351000000: global: x9=0x7f800000
351000000: global: x10=0x43000000
351000000: global: x11=0x000111bc
351000000: global: x12=0x000111b8
351000000: global: x13=0x00000000
351000000: global: x14=0x00000000
351000000: global: x15=0x00000000
351000000: global: x16=0x00000000
351000000: global: x17=0x00000000
351000000: global: x18=0x00000000
351000000: global: x19=0x00000000
351000000: global: x20=0x00000000
351000000: global: x21=0x00000000
351000000: global: x22=0x00000000
351000000: global: x23=0x00000000
351000000: global: x24=0x00000000
351000000: global: x25=0x00000000
351000000: global: x26=0x00000000
351000000: global: x27=0x00000000
351000000: global: x28=0x00000000
351000000: global: x29=0x00000000
351000000: global: x30=0x00000000
351000000: global: x31=0x00000000
351000000: global: f0=0x00000000
351000000: global: f1=0x4101999a
351000000: global: f2=0x3f800000
351000000: global: f3=0xc2aa0000
351000000: global: f4=0xc321e666
351000000: global: f5=0x00000000
351000000: global: f6=0x00000000
351000000: global: f7=0x00000000
351000000: global: f8=0x00000000
351000000: global: f9=0x00000000
351000000: global: f10=0x00000000
351000000: global: f11=0x00000000
351000000: global: f12=0x00000000
351000000: global: f13=0x00000000
351000000: global: f14=0x00000000
351000000: global: f15=0x00000000
351000000: global: f16=0x00000000
351000000: global: f17=0x00000000
351000000: global: f18=0x00000000
351000000: global: f19=0x00000000
351000000: global: f20=0x00000000
351000000: global: f21=0x00000000
351000000: global: f22=0x00000000
351000000: global: f23=0x00000000
351000000: global: f24=0x00000000
351000000: global: f25=0x00000000
351000000: global: f26=0x00000000
351000000: global: f27=0x00000000
351000000: global: f28=0x00000000
351000000: global: f29=0x00000000
351000000: global: f30=0x00000000
351000000: global: f31=0x00000000
351000000: system.cpu.memory: Log4GUI: memory: 351000000: 0: 10124: jal x0, 12
351000000: system.cpu.decode: Log4GUI: decode: 351000000: 0: 10130: addi x10, x0, 0
351000000: system.cpu.fetch1: Log4GUI: fetch1: 351000000: 0: 10134: <assembly>
352000000: system.cpu.writeback: Log4GUI: writeback: 352000000: 0: 10124: jal x0, 12
352000000: system.cpu.writeback: REGISTERS
352000000: global: x0=0x00000000
352000000: global: x1=0x0001113c
352000000: global: x2=0x0001117c
352000000: global: x3=0x000111c1
352000000: global: x4=0xffffffab
352000000: global: x5=0x00000010
352000000: global: x6=0x00000010
352000000: global: x7=0x00000040
352000000: global: x8=0x000111bd
352000000: global: x9=0x7f800000
352000000: global: x10=0x43000000
352000000: global: x11=0x000111bc
352000000: global: x12=0x000111b8
352000000: global: x13=0x00000000
352000000: global: x14=0x00000000
352000000: global: x15=0x00000000
352000000: global: x16=0x00000000
352000000: global: x17=0x00000000
352000000: global: x18=0x00000000
352000000: global: x19=0x00000000
352000000: global: x20=0x00000000
352000000: global: x21=0x00000000
352000000: global: x22=0x00000000
352000000: global: x23=0x00000000
352000000: global: x24=0x00000000
352000000: global: x25=0x00000000
352000000: global: x26=0x00000000
352000000: global: x27=0x00000000
352000000: global: x28=0x00000000
352000000: global: x29=0x00000000
352000000: global: x30=0x00000000
352000000: global: x31=0x00000000
352000000: global: f0=0x00000000
352000000: global: f1=0x4101999a
352000000: global: f2=0x3f800000
352000000: global: f3=0xc2aa0000
352000000: global: f4=0xc321e666
352000000: global: f5=0x00000000
352000000: global: f6=0x00000000
352000000: global: f7=0x00000000
352000000: global: f8=0x00000000
352000000: global: f9=0x00000000
352000000: global: f10=0x00000000
352000000: global: f11=0x00000000
352000000: global: f12=0x00000000
352000000: global: f13=0x00000000
352000000: global: f14=0x00000000
352000000: global: f15=0x00000000
352000000: global: f16=0x00000000
352000000: global: f17=0x00000000
352000000: global: f18=0x00000000
352000000: global: f19=0x00000000
352000000: global: f20=0x00000000
352000000: global: f21=0x00000000
352000000: global: f22=0x00000000
352000000: global: f23=0x00000000
352000000: global: f24=0x00000000
352000000: global: f25=0x00000000
352000000: global: f26=0x00000000
352000000: global: f27=0x00000000
352000000: global: f28=0x00000000
352000000: global: f29=0x00000000
352000000: global: f30=0x00000000
352000000: global: f31=0x00000000
352000000: system.cpu.execute: Log4GUI: execute: 352000000: 0: 10130: addi x10, x0, 0: 0
352000000: system.cpu.decode: Log4GUI: decode: 352000000: 0: 10134: addi x17, x0, 93
352000000: system.cpu.fetch1: Log4GUI: fetch1: 352000000: 0: 10138: <assembly>
353000000: system.cpu.memory: Log4GUI: memory: 353000000: 0: 10130: addi x10, x0, 0
353000000: system.cpu.execute: Log4GUI: execute: 353000000: 0: 10134: addi x17, x0, 93: 0
353000000: system.cpu.decode: Log4GUI: decode: 353000000: 0: 10138: ecall
353000000: system.cpu.fetch1: Log4GUI: fetch1: 353000000: 0: 1013c: <assembly>
354000000: system.cpu.writeback: Log4GUI: writeback: 354000000: 0: 10130: addi x10, x0, 0
354000000: system.cpu.writeback: REGISTERS
354000000: global: x0=0x00000000
354000000: global: x1=0x0001113c
354000000: global: x2=0x0001117c
354000000: global: x3=0x000111c1
354000000: global: x4=0xffffffab
354000000: global: x5=0x00000010
354000000: global: x6=0x00000010
354000000: global: x7=0x00000040
354000000: global: x8=0x000111bd
354000000: global: x9=0x7f800000
354000000: global: x10=0x00000000
354000000: global: x11=0x000111bc
354000000: global: x12=0x000111b8
354000000: global: x13=0x00000000
354000000: global: x14=0x00000000
354000000: global: x15=0x00000000
354000000: global: x16=0x00000000
354000000: global: x17=0x00000000
354000000: global: x18=0x00000000
354000000: global: x19=0x00000000
354000000: global: x20=0x00000000
354000000: global: x21=0x00000000
354000000: global: x22=0x00000000
354000000: global: x23=0x00000000
354000000: global: x24=0x00000000
354000000: global: x25=0x00000000
354000000: global: x26=0x00000000
354000000: global: x27=0x00000000
354000000: global: x28=0x00000000
354000000: global: x29=0x00000000
354000000: global: x30=0x00000000
354000000: global: x31=0x00000000
354000000: global: f0=0x00000000
354000000: global: f1=0x4101999a
354000000: global: f2=0x3f800000
354000000: global: f3=0xc2aa0000
354000000: global: f4=0xc321e666
354000000: global: f5=0x00000000
354000000: global: f6=0x00000000
354000000: global: f7=0x00000000
354000000: global: f8=0x00000000
354000000: global: f9=0x00000000
354000000: global: f10=0x00000000
354000000: global: f11=0x00000000
354000000: global: f12=0x00000000
354000000: global: f13=0x00000000
354000000: global: f14=0x00000000
354000000: global: f15=0x00000000
354000000: global: f16=0x00000000
354000000: global: f17=0x00000000
354000000: global: f18=0x00000000
354000000: global: f19=0x00000000
354000000: global: f20=0x00000000
354000000: global: f21=0x00000000
354000000: global: f22=0x00000000
354000000: global: f23=0x00000000
354000000: global: f24=0x00000000
354000000: global: f25=0x00000000
354000000: global: f26=0x00000000
354000000: global: f27=0x00000000
354000000: global: f28=0x00000000
354000000: global: f29=0x00000000
354000000: global: f30=0x00000000
354000000: global: f31=0x00000000
354000000: system.cpu.memory: Log4GUI: memory: 354000000: 0: 10134: addi x17, x0, 93
354000000: system.cpu.execute: Log4GUI: execute: 354000000: 0: 10138: ecall: -1
354000000: system.cpu.decode: Log4GUI: decode: 354000000: 0: 1013c: c_addi4spn x8, x2, 0
354000000: system.cpu.fetch1: Log4GUI: fetch1: 354000000: 0: 1013e: <assembly>
Exiting @ tick 354000000 because exiting with last active thread context
