Global frequency set at 1000000000000 ticks per second
gem5 Simulator System.  https://www.gem5.org
gem5 is copyrighted software; use the --copyright option for details.

gem5 version 22.1.0.0
gem5 compiled Aug 27 2025 16:10:28
gem5 started Oct 31 2025 18:44:47
gem5 executing on vboxuser-VirtualBox, pid 39956
command line: /home/vboxuser/gem5/build/RISCV/gem5.opt --debug-flags=MinorGUI gem5_config.py --cpu-type MinorCPU --caches --l1d_size 8388608 --l1i_size 8388608 --cacheline_size 512 --cpu-clock 1MHz --sys-clock 10GHz -c program_1_b_4

**** REAL SIMULATION ****
1000000: system.cpu.fetch1: Log4GUI: fetch1: 1000000: 0: 10094: <assembly>
2000000: system.cpu.fetch1: Log4GUI: fetch1: 2000000: 1: 10094: <assembly>
3000000: system.cpu.fetch1: Log4GUI: fetch1: 3000000: 1: 10094: <assembly>
4000000: system.cpu.fetch1: Log4GUI: fetch1: 4000000: 1: 10094: <assembly>
5000000: system.cpu.decode: Log4GUI: decode: 5000000: 0: 10094: auipc x1, 1
5000000: system.cpu.fetch1: Log4GUI: fetch1: 5000000: 0: 10098: <assembly>
6000000: system.cpu.execute: Log4GUI: execute: 6000000: 0: 10094: auipc x1, 1: 0
6000000: system.cpu.decode: Log4GUI: decode: 6000000: 0: 10098: addi x1, x1, 264
6000000: system.cpu.fetch1: Log4GUI: fetch1: 6000000: 0: 1009c: <assembly>
7000000: system.cpu.memory: Log4GUI: memory: 7000000: 0: 10094: auipc x1, 1
7000000: system.cpu.execute: Log4GUI: execute: 7000000: 0: 10098: addi x1, x1, 264: 0
7000000: system.cpu.decode: Log4GUI: decode: 7000000: 0: 1009c: flw f1, 0(x1)
7000000: system.cpu.fetch1: Log4GUI: fetch1: 7000000: 0: 100a0: <assembly>
8000000: system.cpu.writeback: Log4GUI: writeback: 8000000: 0: 10094: auipc x1, 1
8000000: system.cpu.writeback: REGISTERS
8000000: global: x0=0x00000000
8000000: global: x1=0x00011094
8000000: global: x2=0x7fffff90
8000000: global: x3=0x00000000
8000000: global: x4=0x00000000
8000000: global: x5=0x00000000
8000000: global: x6=0x00000000
8000000: global: x7=0x00000000
8000000: global: x8=0x00000000
8000000: global: x9=0x00000000
8000000: global: x10=0x00000000
8000000: global: x11=0x00000000
8000000: global: x12=0x00000000
8000000: global: x13=0x00000000
8000000: global: x14=0x00000000
8000000: global: x15=0x00000000
8000000: global: x16=0x00000000
8000000: global: x17=0x00000000
8000000: global: x18=0x00000000
8000000: global: x19=0x00000000
8000000: global: x20=0x00000000
8000000: global: x21=0x00000000
8000000: global: x22=0x00000000
8000000: global: x23=0x00000000
8000000: global: x24=0x00000000
8000000: global: x25=0x00000000
8000000: global: x26=0x00000000
8000000: global: x27=0x00000000
8000000: global: x28=0x00000000
8000000: global: x29=0x00000000
8000000: global: x30=0x00000000
8000000: global: x31=0x00000000
8000000: global: f0=0x00000000
8000000: global: f1=0x00000000
8000000: global: f2=0x00000000
8000000: global: f3=0x00000000
8000000: global: f4=0x00000000
8000000: global: f5=0x00000000
8000000: global: f6=0x00000000
8000000: global: f7=0x00000000
8000000: global: f8=0x00000000
8000000: global: f9=0x00000000
8000000: global: f10=0x00000000
8000000: global: f11=0x00000000
8000000: global: f12=0x00000000
8000000: global: f13=0x00000000
8000000: global: f14=0x00000000
8000000: global: f15=0x00000000
8000000: global: f16=0x00000000
8000000: global: f17=0x00000000
8000000: global: f18=0x00000000
8000000: global: f19=0x00000000
8000000: global: f20=0x00000000
8000000: global: f21=0x00000000
8000000: global: f22=0x00000000
8000000: global: f23=0x00000000
8000000: global: f24=0x00000000
8000000: global: f25=0x00000000
8000000: global: f26=0x00000000
8000000: global: f27=0x00000000
8000000: global: f28=0x00000000
8000000: global: f29=0x00000000
8000000: global: f30=0x00000000
8000000: global: f31=0x00000000
8000000: system.cpu.memory: Log4GUI: memory: 8000000: 0: 10098: addi x1, x1, 264
8000000: system.cpu.execute: Log4GUI: execute: 8000000: 0: 1009c: flw f1, 0(x1): 0
8000000: system.cpu.decode: Log4GUI: decode: 8000000: 0: 100a0: auipc x2, 1
8000000: system.cpu.fetch1: Log4GUI: fetch1: 8000000: 0: 100a4: <assembly>
9000000: system.cpu.writeback: Log4GUI: writeback: 9000000: 0: 10098: addi x1, x1, 264
9000000: system.cpu.writeback: REGISTERS
9000000: global: x0=0x00000000
9000000: global: x1=0x0001119c
9000000: global: x2=0x7fffff90
9000000: global: x3=0x00000000
9000000: global: x4=0x00000000
9000000: global: x5=0x00000000
9000000: global: x6=0x00000000
9000000: global: x7=0x00000000
9000000: global: x8=0x00000000
9000000: global: x9=0x00000000
9000000: global: x10=0x00000000
9000000: global: x11=0x00000000
9000000: global: x12=0x00000000
9000000: global: x13=0x00000000
9000000: global: x14=0x00000000
9000000: global: x15=0x00000000
9000000: global: x16=0x00000000
9000000: global: x17=0x00000000
9000000: global: x18=0x00000000
9000000: global: x19=0x00000000
9000000: global: x20=0x00000000
9000000: global: x21=0x00000000
9000000: global: x22=0x00000000
9000000: global: x23=0x00000000
9000000: global: x24=0x00000000
9000000: global: x25=0x00000000
9000000: global: x26=0x00000000
9000000: global: x27=0x00000000
9000000: global: x28=0x00000000
9000000: global: x29=0x00000000
9000000: global: x30=0x00000000
9000000: global: x31=0x00000000
9000000: global: f0=0x00000000
9000000: global: f1=0x00000000
9000000: global: f2=0x00000000
9000000: global: f3=0x00000000
9000000: global: f4=0x00000000
9000000: global: f5=0x00000000
9000000: global: f6=0x00000000
9000000: global: f7=0x00000000
9000000: global: f8=0x00000000
9000000: global: f9=0x00000000
9000000: global: f10=0x00000000
9000000: global: f11=0x00000000
9000000: global: f12=0x00000000
9000000: global: f13=0x00000000
9000000: global: f14=0x00000000
9000000: global: f15=0x00000000
9000000: global: f16=0x00000000
9000000: global: f17=0x00000000
9000000: global: f18=0x00000000
9000000: global: f19=0x00000000
9000000: global: f20=0x00000000
9000000: global: f21=0x00000000
9000000: global: f22=0x00000000
9000000: global: f23=0x00000000
9000000: global: f24=0x00000000
9000000: global: f25=0x00000000
9000000: global: f26=0x00000000
9000000: global: f27=0x00000000
9000000: global: f28=0x00000000
9000000: global: f29=0x00000000
9000000: global: f30=0x00000000
9000000: global: f31=0x00000000
9000000: system.cpu.memory: Log4GUI: memory: 9000000: 0: 1009c: flw f1, 0(x1)
9000000: system.cpu.execute: Log4GUI: execute: 9000000: 0: 100a0: auipc x2, 1: 0
9000000: system.cpu.decode: Log4GUI: decode: 9000000: 0: 100a4: addi x2, x2, 316
9000000: system.cpu.fetch1: Log4GUI: fetch1: 9000000: 0: 100a8: <assembly>
10000000: system.cpu.memory: Log4GUI: memory: 10000000: 1: 1009c: flw f1, 0(x1)
10000000: system.cpu.execute: Log4GUI: execute: 10000000: 1: 100a0: auipc x2, 1: 0
10000000: system.cpu.decode: Log4GUI: decode: 10000000: 1: 100a4: addi x2, x2, 316
10000000: system.cpu.fetch1: Log4GUI: fetch1: 10000000: 1: 100a8: <assembly>
11000000: system.cpu.decode: Log4GUI: decode: 11000000: 1: 100a4: addi x2, x2, 316
11000000: system.cpu.fetch1: Log4GUI: fetch1: 11000000: 1: 100a8: <assembly>
12000000: system.cpu.writeback: Log4GUI: writeback: 12000000: 0: 1009c: flw f1, 0(x1)
12000000: system.cpu.writeback: REGISTERS
12000000: global: x0=0x00000000
12000000: global: x1=0x0001119c
12000000: global: x2=0x7fffff90
12000000: global: x3=0x00000000
12000000: global: x4=0x00000000
12000000: global: x5=0x00000000
12000000: global: x6=0x00000000
12000000: global: x7=0x00000000
12000000: global: x8=0x00000000
12000000: global: x9=0x00000000
12000000: global: x10=0x00000000
12000000: global: x11=0x00000000
12000000: global: x12=0x00000000
12000000: global: x13=0x00000000
12000000: global: x14=0x00000000
12000000: global: x15=0x00000000
12000000: global: x16=0x00000000
12000000: global: x17=0x00000000
12000000: global: x18=0x00000000
12000000: global: x19=0x00000000
12000000: global: x20=0x00000000
12000000: global: x21=0x00000000
12000000: global: x22=0x00000000
12000000: global: x23=0x00000000
12000000: global: x24=0x00000000
12000000: global: x25=0x00000000
12000000: global: x26=0x00000000
12000000: global: x27=0x00000000
12000000: global: x28=0x00000000
12000000: global: x29=0x00000000
12000000: global: x30=0x00000000
12000000: global: x31=0x00000000
12000000: global: f0=0x00000000
12000000: global: f1=0x40933333
12000000: global: f2=0x00000000
12000000: global: f3=0x00000000
12000000: global: f4=0x00000000
12000000: global: f5=0x00000000
12000000: global: f6=0x00000000
12000000: global: f7=0x00000000
12000000: global: f8=0x00000000
12000000: global: f9=0x00000000
12000000: global: f10=0x00000000
12000000: global: f11=0x00000000
12000000: global: f12=0x00000000
12000000: global: f13=0x00000000
12000000: global: f14=0x00000000
12000000: global: f15=0x00000000
12000000: global: f16=0x00000000
12000000: global: f17=0x00000000
12000000: global: f18=0x00000000
12000000: global: f19=0x00000000
12000000: global: f20=0x00000000
12000000: global: f21=0x00000000
12000000: global: f22=0x00000000
12000000: global: f23=0x00000000
12000000: global: f24=0x00000000
12000000: global: f25=0x00000000
12000000: global: f26=0x00000000
12000000: global: f27=0x00000000
12000000: global: f28=0x00000000
12000000: global: f29=0x00000000
12000000: global: f30=0x00000000
12000000: global: f31=0x00000000
12000000: system.cpu.memory: Log4GUI: memory: 12000000: 0: 100a0: auipc x2, 1
12000000: system.cpu.execute: Log4GUI: execute: 12000000: 0: 100a4: addi x2, x2, 316: 0
12000000: system.cpu.decode: Log4GUI: decode: 12000000: 0: 100a8: flw f1, 0(x2)
12000000: system.cpu.fetch1: Log4GUI: fetch1: 12000000: 0: 100ac: <assembly>
13000000: system.cpu.writeback: Log4GUI: writeback: 13000000: 0: 100a0: auipc x2, 1
13000000: system.cpu.writeback: REGISTERS
13000000: global: x0=0x00000000
13000000: global: x1=0x0001119c
13000000: global: x2=0x000110a0
13000000: global: x3=0x00000000
13000000: global: x4=0x00000000
13000000: global: x5=0x00000000
13000000: global: x6=0x00000000
13000000: global: x7=0x00000000
13000000: global: x8=0x00000000
13000000: global: x9=0x00000000
13000000: global: x10=0x00000000
13000000: global: x11=0x00000000
13000000: global: x12=0x00000000
13000000: global: x13=0x00000000
13000000: global: x14=0x00000000
13000000: global: x15=0x00000000
13000000: global: x16=0x00000000
13000000: global: x17=0x00000000
13000000: global: x18=0x00000000
13000000: global: x19=0x00000000
13000000: global: x20=0x00000000
13000000: global: x21=0x00000000
13000000: global: x22=0x00000000
13000000: global: x23=0x00000000
13000000: global: x24=0x00000000
13000000: global: x25=0x00000000
13000000: global: x26=0x00000000
13000000: global: x27=0x00000000
13000000: global: x28=0x00000000
13000000: global: x29=0x00000000
13000000: global: x30=0x00000000
13000000: global: x31=0x00000000
13000000: global: f0=0x00000000
13000000: global: f1=0x40933333
13000000: global: f2=0x00000000
13000000: global: f3=0x00000000
13000000: global: f4=0x00000000
13000000: global: f5=0x00000000
13000000: global: f6=0x00000000
13000000: global: f7=0x00000000
13000000: global: f8=0x00000000
13000000: global: f9=0x00000000
13000000: global: f10=0x00000000
13000000: global: f11=0x00000000
13000000: global: f12=0x00000000
13000000: global: f13=0x00000000
13000000: global: f14=0x00000000
13000000: global: f15=0x00000000
13000000: global: f16=0x00000000
13000000: global: f17=0x00000000
13000000: global: f18=0x00000000
13000000: global: f19=0x00000000
13000000: global: f20=0x00000000
13000000: global: f21=0x00000000
13000000: global: f22=0x00000000
13000000: global: f23=0x00000000
13000000: global: f24=0x00000000
13000000: global: f25=0x00000000
13000000: global: f26=0x00000000
13000000: global: f27=0x00000000
13000000: global: f28=0x00000000
13000000: global: f29=0x00000000
13000000: global: f30=0x00000000
13000000: global: f31=0x00000000
13000000: system.cpu.memory: Log4GUI: memory: 13000000: 0: 100a4: addi x2, x2, 316
13000000: system.cpu.execute: Log4GUI: execute: 13000000: 0: 100a8: flw f1, 0(x2): 0
13000000: system.cpu.decode: Log4GUI: decode: 13000000: 0: 100ac: auipc x3, 1
13000000: system.cpu.fetch1: Log4GUI: fetch1: 13000000: 0: 100b0: <assembly>
14000000: system.cpu.writeback: Log4GUI: writeback: 14000000: 0: 100a4: addi x2, x2, 316
14000000: system.cpu.writeback: REGISTERS
14000000: global: x0=0x00000000
14000000: global: x1=0x0001119c
14000000: global: x2=0x000111dc
14000000: global: x3=0x00000000
14000000: global: x4=0x00000000
14000000: global: x5=0x00000000
14000000: global: x6=0x00000000
14000000: global: x7=0x00000000
14000000: global: x8=0x00000000
14000000: global: x9=0x00000000
14000000: global: x10=0x00000000
14000000: global: x11=0x00000000
14000000: global: x12=0x00000000
14000000: global: x13=0x00000000
14000000: global: x14=0x00000000
14000000: global: x15=0x00000000
14000000: global: x16=0x00000000
14000000: global: x17=0x00000000
14000000: global: x18=0x00000000
14000000: global: x19=0x00000000
14000000: global: x20=0x00000000
14000000: global: x21=0x00000000
14000000: global: x22=0x00000000
14000000: global: x23=0x00000000
14000000: global: x24=0x00000000
14000000: global: x25=0x00000000
14000000: global: x26=0x00000000
14000000: global: x27=0x00000000
14000000: global: x28=0x00000000
14000000: global: x29=0x00000000
14000000: global: x30=0x00000000
14000000: global: x31=0x00000000
14000000: global: f0=0x00000000
14000000: global: f1=0x40933333
14000000: global: f2=0x00000000
14000000: global: f3=0x00000000
14000000: global: f4=0x00000000
14000000: global: f5=0x00000000
14000000: global: f6=0x00000000
14000000: global: f7=0x00000000
14000000: global: f8=0x00000000
14000000: global: f9=0x00000000
14000000: global: f10=0x00000000
14000000: global: f11=0x00000000
14000000: global: f12=0x00000000
14000000: global: f13=0x00000000
14000000: global: f14=0x00000000
14000000: global: f15=0x00000000
14000000: global: f16=0x00000000
14000000: global: f17=0x00000000
14000000: global: f18=0x00000000
14000000: global: f19=0x00000000
14000000: global: f20=0x00000000
14000000: global: f21=0x00000000
14000000: global: f22=0x00000000
14000000: global: f23=0x00000000
14000000: global: f24=0x00000000
14000000: global: f25=0x00000000
14000000: global: f26=0x00000000
14000000: global: f27=0x00000000
14000000: global: f28=0x00000000
14000000: global: f29=0x00000000
14000000: global: f30=0x00000000
14000000: global: f31=0x00000000
14000000: system.cpu.memory: Log4GUI: memory: 14000000: 0: 100a8: flw f1, 0(x2)
14000000: system.cpu.execute: Log4GUI: execute: 14000000: 0: 100ac: auipc x3, 1: 0
14000000: system.cpu.decode: Log4GUI: decode: 14000000: 0: 100b0: addi x3, x3, 368
14000000: system.cpu.fetch1: Log4GUI: fetch1: 14000000: 0: 100b4: <assembly>
15000000: system.cpu.writeback: Log4GUI: writeback: 15000000: 0: 100a8: flw f1, 0(x2)
15000000: system.cpu.writeback: REGISTERS
15000000: global: x0=0x00000000
15000000: global: x1=0x0001119c
15000000: global: x2=0x000111dc
15000000: global: x3=0x00000000
15000000: global: x4=0x00000000
15000000: global: x5=0x00000000
15000000: global: x6=0x00000000
15000000: global: x7=0x00000000
15000000: global: x8=0x00000000
15000000: global: x9=0x00000000
15000000: global: x10=0x00000000
15000000: global: x11=0x00000000
15000000: global: x12=0x00000000
15000000: global: x13=0x00000000
15000000: global: x14=0x00000000
15000000: global: x15=0x00000000
15000000: global: x16=0x00000000
15000000: global: x17=0x00000000
15000000: global: x18=0x00000000
15000000: global: x19=0x00000000
15000000: global: x20=0x00000000
15000000: global: x21=0x00000000
15000000: global: x22=0x00000000
15000000: global: x23=0x00000000
15000000: global: x24=0x00000000
15000000: global: x25=0x00000000
15000000: global: x26=0x00000000
15000000: global: x27=0x00000000
15000000: global: x28=0x00000000
15000000: global: x29=0x00000000
15000000: global: x30=0x00000000
15000000: global: x31=0x00000000
15000000: global: f0=0x00000000
15000000: global: f1=0x4019999a
15000000: global: f2=0x00000000
15000000: global: f3=0x00000000
15000000: global: f4=0x00000000
15000000: global: f5=0x00000000
15000000: global: f6=0x00000000
15000000: global: f7=0x00000000
15000000: global: f8=0x00000000
15000000: global: f9=0x00000000
15000000: global: f10=0x00000000
15000000: global: f11=0x00000000
15000000: global: f12=0x00000000
15000000: global: f13=0x00000000
15000000: global: f14=0x00000000
15000000: global: f15=0x00000000
15000000: global: f16=0x00000000
15000000: global: f17=0x00000000
15000000: global: f18=0x00000000
15000000: global: f19=0x00000000
15000000: global: f20=0x00000000
15000000: global: f21=0x00000000
15000000: global: f22=0x00000000
15000000: global: f23=0x00000000
15000000: global: f24=0x00000000
15000000: global: f25=0x00000000
15000000: global: f26=0x00000000
15000000: global: f27=0x00000000
15000000: global: f28=0x00000000
15000000: global: f29=0x00000000
15000000: global: f30=0x00000000
15000000: global: f31=0x00000000
15000000: system.cpu.memory: Log4GUI: memory: 15000000: 0: 100ac: auipc x3, 1
15000000: system.cpu.execute: Log4GUI: execute: 15000000: 0: 100b0: addi x3, x3, 368: 0
15000000: system.cpu.decode: Log4GUI: decode: 15000000: 0: 100b4: lb x4, 0(x3)
15000000: system.cpu.fetch1: Log4GUI: fetch1: 15000000: 0: 100b8: <assembly>
16000000: system.cpu.writeback: Log4GUI: writeback: 16000000: 0: 100ac: auipc x3, 1
16000000: system.cpu.writeback: REGISTERS
16000000: global: x0=0x00000000
16000000: global: x1=0x0001119c
16000000: global: x2=0x000111dc
16000000: global: x3=0x000110ac
16000000: global: x4=0x00000000
16000000: global: x5=0x00000000
16000000: global: x6=0x00000000
16000000: global: x7=0x00000000
16000000: global: x8=0x00000000
16000000: global: x9=0x00000000
16000000: global: x10=0x00000000
16000000: global: x11=0x00000000
16000000: global: x12=0x00000000
16000000: global: x13=0x00000000
16000000: global: x14=0x00000000
16000000: global: x15=0x00000000
16000000: global: x16=0x00000000
16000000: global: x17=0x00000000
16000000: global: x18=0x00000000
16000000: global: x19=0x00000000
16000000: global: x20=0x00000000
16000000: global: x21=0x00000000
16000000: global: x22=0x00000000
16000000: global: x23=0x00000000
16000000: global: x24=0x00000000
16000000: global: x25=0x00000000
16000000: global: x26=0x00000000
16000000: global: x27=0x00000000
16000000: global: x28=0x00000000
16000000: global: x29=0x00000000
16000000: global: x30=0x00000000
16000000: global: x31=0x00000000
16000000: global: f0=0x00000000
16000000: global: f1=0x4019999a
16000000: global: f2=0x00000000
16000000: global: f3=0x00000000
16000000: global: f4=0x00000000
16000000: global: f5=0x00000000
16000000: global: f6=0x00000000
16000000: global: f7=0x00000000
16000000: global: f8=0x00000000
16000000: global: f9=0x00000000
16000000: global: f10=0x00000000
16000000: global: f11=0x00000000
16000000: global: f12=0x00000000
16000000: global: f13=0x00000000
16000000: global: f14=0x00000000
16000000: global: f15=0x00000000
16000000: global: f16=0x00000000
16000000: global: f17=0x00000000
16000000: global: f18=0x00000000
16000000: global: f19=0x00000000
16000000: global: f20=0x00000000
16000000: global: f21=0x00000000
16000000: global: f22=0x00000000
16000000: global: f23=0x00000000
16000000: global: f24=0x00000000
16000000: global: f25=0x00000000
16000000: global: f26=0x00000000
16000000: global: f27=0x00000000
16000000: global: f28=0x00000000
16000000: global: f29=0x00000000
16000000: global: f30=0x00000000
16000000: global: f31=0x00000000
16000000: system.cpu.memory: Log4GUI: memory: 16000000: 0: 100b0: addi x3, x3, 368
16000000: system.cpu.execute: Log4GUI: execute: 16000000: 0: 100b4: lb x4, 0(x3): 0
16000000: system.cpu.decode: Log4GUI: decode: 16000000: 0: 100b8: auipc x3, 1
16000000: system.cpu.fetch1: Log4GUI: fetch1: 16000000: 0: 100bc: <assembly>
17000000: system.cpu.writeback: Log4GUI: writeback: 17000000: 0: 100b0: addi x3, x3, 368
17000000: system.cpu.writeback: REGISTERS
17000000: global: x0=0x00000000
17000000: global: x1=0x0001119c
17000000: global: x2=0x000111dc
17000000: global: x3=0x0001121c
17000000: global: x4=0x00000000
17000000: global: x5=0x00000000
17000000: global: x6=0x00000000
17000000: global: x7=0x00000000
17000000: global: x8=0x00000000
17000000: global: x9=0x00000000
17000000: global: x10=0x00000000
17000000: global: x11=0x00000000
17000000: global: x12=0x00000000
17000000: global: x13=0x00000000
17000000: global: x14=0x00000000
17000000: global: x15=0x00000000
17000000: global: x16=0x00000000
17000000: global: x17=0x00000000
17000000: global: x18=0x00000000
17000000: global: x19=0x00000000
17000000: global: x20=0x00000000
17000000: global: x21=0x00000000
17000000: global: x22=0x00000000
17000000: global: x23=0x00000000
17000000: global: x24=0x00000000
17000000: global: x25=0x00000000
17000000: global: x26=0x00000000
17000000: global: x27=0x00000000
17000000: global: x28=0x00000000
17000000: global: x29=0x00000000
17000000: global: x30=0x00000000
17000000: global: x31=0x00000000
17000000: global: f0=0x00000000
17000000: global: f1=0x4019999a
17000000: global: f2=0x00000000
17000000: global: f3=0x00000000
17000000: global: f4=0x00000000
17000000: global: f5=0x00000000
17000000: global: f6=0x00000000
17000000: global: f7=0x00000000
17000000: global: f8=0x00000000
17000000: global: f9=0x00000000
17000000: global: f10=0x00000000
17000000: global: f11=0x00000000
17000000: global: f12=0x00000000
17000000: global: f13=0x00000000
17000000: global: f14=0x00000000
17000000: global: f15=0x00000000
17000000: global: f16=0x00000000
17000000: global: f17=0x00000000
17000000: global: f18=0x00000000
17000000: global: f19=0x00000000
17000000: global: f20=0x00000000
17000000: global: f21=0x00000000
17000000: global: f22=0x00000000
17000000: global: f23=0x00000000
17000000: global: f24=0x00000000
17000000: global: f25=0x00000000
17000000: global: f26=0x00000000
17000000: global: f27=0x00000000
17000000: global: f28=0x00000000
17000000: global: f29=0x00000000
17000000: global: f30=0x00000000
17000000: global: f31=0x00000000
17000000: system.cpu.memory: Log4GUI: memory: 17000000: 0: 100b4: lb x4, 0(x3)
17000000: system.cpu.execute: Log4GUI: execute: 17000000: 0: 100b8: auipc x3, 1: 0
17000000: system.cpu.decode: Log4GUI: decode: 17000000: 0: 100bc: addi x3, x3, 361
17000000: system.cpu.fetch1: Log4GUI: fetch1: 17000000: 0: 100c0: <assembly>
18000000: system.cpu.memory: Log4GUI: memory: 18000000: 1: 100b4: lb x4, 0(x3)
18000000: system.cpu.execute: Log4GUI: execute: 18000000: 1: 100b8: auipc x3, 1: 0
18000000: system.cpu.decode: Log4GUI: decode: 18000000: 1: 100bc: addi x3, x3, 361
18000000: system.cpu.fetch1: Log4GUI: fetch1: 18000000: 1: 100c0: <assembly>
19000000: system.cpu.decode: Log4GUI: decode: 19000000: 1: 100bc: addi x3, x3, 361
19000000: system.cpu.fetch1: Log4GUI: fetch1: 19000000: 1: 100c0: <assembly>
20000000: system.cpu.writeback: Log4GUI: writeback: 20000000: 0: 100b4: lb x4, 0(x3)
20000000: system.cpu.writeback: REGISTERS
20000000: global: x0=0x00000000
20000000: global: x1=0x0001119c
20000000: global: x2=0x000111dc
20000000: global: x3=0x0001121c
20000000: global: x4=0xffffffab
20000000: global: x5=0x00000000
20000000: global: x6=0x00000000
20000000: global: x7=0x00000000
20000000: global: x8=0x00000000
20000000: global: x9=0x00000000
20000000: global: x10=0x00000000
20000000: global: x11=0x00000000
20000000: global: x12=0x00000000
20000000: global: x13=0x00000000
20000000: global: x14=0x00000000
20000000: global: x15=0x00000000
20000000: global: x16=0x00000000
20000000: global: x17=0x00000000
20000000: global: x18=0x00000000
20000000: global: x19=0x00000000
20000000: global: x20=0x00000000
20000000: global: x21=0x00000000
20000000: global: x22=0x00000000
20000000: global: x23=0x00000000
20000000: global: x24=0x00000000
20000000: global: x25=0x00000000
20000000: global: x26=0x00000000
20000000: global: x27=0x00000000
20000000: global: x28=0x00000000
20000000: global: x29=0x00000000
20000000: global: x30=0x00000000
20000000: global: x31=0x00000000
20000000: global: f0=0x00000000
20000000: global: f1=0x4019999a
20000000: global: f2=0x00000000
20000000: global: f3=0x00000000
20000000: global: f4=0x00000000
20000000: global: f5=0x00000000
20000000: global: f6=0x00000000
20000000: global: f7=0x00000000
20000000: global: f8=0x00000000
20000000: global: f9=0x00000000
20000000: global: f10=0x00000000
20000000: global: f11=0x00000000
20000000: global: f12=0x00000000
20000000: global: f13=0x00000000
20000000: global: f14=0x00000000
20000000: global: f15=0x00000000
20000000: global: f16=0x00000000
20000000: global: f17=0x00000000
20000000: global: f18=0x00000000
20000000: global: f19=0x00000000
20000000: global: f20=0x00000000
20000000: global: f21=0x00000000
20000000: global: f22=0x00000000
20000000: global: f23=0x00000000
20000000: global: f24=0x00000000
20000000: global: f25=0x00000000
20000000: global: f26=0x00000000
20000000: global: f27=0x00000000
20000000: global: f28=0x00000000
20000000: global: f29=0x00000000
20000000: global: f30=0x00000000
20000000: global: f31=0x00000000
20000000: system.cpu.memory: Log4GUI: memory: 20000000: 0: 100b8: auipc x3, 1
20000000: system.cpu.execute: Log4GUI: execute: 20000000: 0: 100bc: addi x3, x3, 361: 0
20000000: system.cpu.decode: Log4GUI: decode: 20000000: 0: 100c0: lb x5, 0(x3)
20000000: system.cpu.fetch1: Log4GUI: fetch1: 20000000: 0: 100c4: <assembly>
21000000: system.cpu.writeback: Log4GUI: writeback: 21000000: 0: 100b8: auipc x3, 1
21000000: system.cpu.writeback: REGISTERS
21000000: global: x0=0x00000000
21000000: global: x1=0x0001119c
21000000: global: x2=0x000111dc
21000000: global: x3=0x000110b8
21000000: global: x4=0xffffffab
21000000: global: x5=0x00000000
21000000: global: x6=0x00000000
21000000: global: x7=0x00000000
21000000: global: x8=0x00000000
21000000: global: x9=0x00000000
21000000: global: x10=0x00000000
21000000: global: x11=0x00000000
21000000: global: x12=0x00000000
21000000: global: x13=0x00000000
21000000: global: x14=0x00000000
21000000: global: x15=0x00000000
21000000: global: x16=0x00000000
21000000: global: x17=0x00000000
21000000: global: x18=0x00000000
21000000: global: x19=0x00000000
21000000: global: x20=0x00000000
21000000: global: x21=0x00000000
21000000: global: x22=0x00000000
21000000: global: x23=0x00000000
21000000: global: x24=0x00000000
21000000: global: x25=0x00000000
21000000: global: x26=0x00000000
21000000: global: x27=0x00000000
21000000: global: x28=0x00000000
21000000: global: x29=0x00000000
21000000: global: x30=0x00000000
21000000: global: x31=0x00000000
21000000: global: f0=0x00000000
21000000: global: f1=0x4019999a
21000000: global: f2=0x00000000
21000000: global: f3=0x00000000
21000000: global: f4=0x00000000
21000000: global: f5=0x00000000
21000000: global: f6=0x00000000
21000000: global: f7=0x00000000
21000000: global: f8=0x00000000
21000000: global: f9=0x00000000
21000000: global: f10=0x00000000
21000000: global: f11=0x00000000
21000000: global: f12=0x00000000
21000000: global: f13=0x00000000
21000000: global: f14=0x00000000
21000000: global: f15=0x00000000
21000000: global: f16=0x00000000
21000000: global: f17=0x00000000
21000000: global: f18=0x00000000
21000000: global: f19=0x00000000
21000000: global: f20=0x00000000
21000000: global: f21=0x00000000
21000000: global: f22=0x00000000
21000000: global: f23=0x00000000
21000000: global: f24=0x00000000
21000000: global: f25=0x00000000
21000000: global: f26=0x00000000
21000000: global: f27=0x00000000
21000000: global: f28=0x00000000
21000000: global: f29=0x00000000
21000000: global: f30=0x00000000
21000000: global: f31=0x00000000
21000000: system.cpu.memory: Log4GUI: memory: 21000000: 0: 100bc: addi x3, x3, 361
21000000: system.cpu.execute: Log4GUI: execute: 21000000: 0: 100c0: lb x5, 0(x3): 0
21000000: system.cpu.decode: Log4GUI: decode: 21000000: 0: 100c4: auipc x8, 1
21000000: system.cpu.fetch1: Log4GUI: fetch1: 21000000: 0: 100c8: <assembly>
22000000: system.cpu.writeback: Log4GUI: writeback: 22000000: 0: 100bc: addi x3, x3, 361
22000000: system.cpu.writeback: REGISTERS
22000000: global: x0=0x00000000
22000000: global: x1=0x0001119c
22000000: global: x2=0x000111dc
22000000: global: x3=0x00011221
22000000: global: x4=0xffffffab
22000000: global: x5=0x00000000
22000000: global: x6=0x00000000
22000000: global: x7=0x00000000
22000000: global: x8=0x00000000
22000000: global: x9=0x00000000
22000000: global: x10=0x00000000
22000000: global: x11=0x00000000
22000000: global: x12=0x00000000
22000000: global: x13=0x00000000
22000000: global: x14=0x00000000
22000000: global: x15=0x00000000
22000000: global: x16=0x00000000
22000000: global: x17=0x00000000
22000000: global: x18=0x00000000
22000000: global: x19=0x00000000
22000000: global: x20=0x00000000
22000000: global: x21=0x00000000
22000000: global: x22=0x00000000
22000000: global: x23=0x00000000
22000000: global: x24=0x00000000
22000000: global: x25=0x00000000
22000000: global: x26=0x00000000
22000000: global: x27=0x00000000
22000000: global: x28=0x00000000
22000000: global: x29=0x00000000
22000000: global: x30=0x00000000
22000000: global: x31=0x00000000
22000000: global: f0=0x00000000
22000000: global: f1=0x4019999a
22000000: global: f2=0x00000000
22000000: global: f3=0x00000000
22000000: global: f4=0x00000000
22000000: global: f5=0x00000000
22000000: global: f6=0x00000000
22000000: global: f7=0x00000000
22000000: global: f8=0x00000000
22000000: global: f9=0x00000000
22000000: global: f10=0x00000000
22000000: global: f11=0x00000000
22000000: global: f12=0x00000000
22000000: global: f13=0x00000000
22000000: global: f14=0x00000000
22000000: global: f15=0x00000000
22000000: global: f16=0x00000000
22000000: global: f17=0x00000000
22000000: global: f18=0x00000000
22000000: global: f19=0x00000000
22000000: global: f20=0x00000000
22000000: global: f21=0x00000000
22000000: global: f22=0x00000000
22000000: global: f23=0x00000000
22000000: global: f24=0x00000000
22000000: global: f25=0x00000000
22000000: global: f26=0x00000000
22000000: global: f27=0x00000000
22000000: global: f28=0x00000000
22000000: global: f29=0x00000000
22000000: global: f30=0x00000000
22000000: global: f31=0x00000000
22000000: system.cpu.memory: Log4GUI: memory: 22000000: 0: 100c0: lb x5, 0(x3)
22000000: system.cpu.execute: Log4GUI: execute: 22000000: 0: 100c4: auipc x8, 1: 0
22000000: system.cpu.decode: Log4GUI: decode: 22000000: 0: 100c8: addi x8, x8, 345
22000000: system.cpu.fetch1: Log4GUI: fetch1: 22000000: 0: 100cc: <assembly>
23000000: system.cpu.writeback: Log4GUI: writeback: 23000000: 0: 100c0: lb x5, 0(x3)
23000000: system.cpu.writeback: REGISTERS
23000000: global: x0=0x00000000
23000000: global: x1=0x0001119c
23000000: global: x2=0x000111dc
23000000: global: x3=0x00011221
23000000: global: x4=0xffffffab
23000000: global: x5=0x00000010
23000000: global: x6=0x00000000
23000000: global: x7=0x00000000
23000000: global: x8=0x00000000
23000000: global: x9=0x00000000
23000000: global: x10=0x00000000
23000000: global: x11=0x00000000
23000000: global: x12=0x00000000
23000000: global: x13=0x00000000
23000000: global: x14=0x00000000
23000000: global: x15=0x00000000
23000000: global: x16=0x00000000
23000000: global: x17=0x00000000
23000000: global: x18=0x00000000
23000000: global: x19=0x00000000
23000000: global: x20=0x00000000
23000000: global: x21=0x00000000
23000000: global: x22=0x00000000
23000000: global: x23=0x00000000
23000000: global: x24=0x00000000
23000000: global: x25=0x00000000
23000000: global: x26=0x00000000
23000000: global: x27=0x00000000
23000000: global: x28=0x00000000
23000000: global: x29=0x00000000
23000000: global: x30=0x00000000
23000000: global: x31=0x00000000
23000000: global: f0=0x00000000
23000000: global: f1=0x4019999a
23000000: global: f2=0x00000000
23000000: global: f3=0x00000000
23000000: global: f4=0x00000000
23000000: global: f5=0x00000000
23000000: global: f6=0x00000000
23000000: global: f7=0x00000000
23000000: global: f8=0x00000000
23000000: global: f9=0x00000000
23000000: global: f10=0x00000000
23000000: global: f11=0x00000000
23000000: global: f12=0x00000000
23000000: global: f13=0x00000000
23000000: global: f14=0x00000000
23000000: global: f15=0x00000000
23000000: global: f16=0x00000000
23000000: global: f17=0x00000000
23000000: global: f18=0x00000000
23000000: global: f19=0x00000000
23000000: global: f20=0x00000000
23000000: global: f21=0x00000000
23000000: global: f22=0x00000000
23000000: global: f23=0x00000000
23000000: global: f24=0x00000000
23000000: global: f25=0x00000000
23000000: global: f26=0x00000000
23000000: global: f27=0x00000000
23000000: global: f28=0x00000000
23000000: global: f29=0x00000000
23000000: global: f30=0x00000000
23000000: global: f31=0x00000000
23000000: system.cpu.memory: Log4GUI: memory: 23000000: 0: 100c4: auipc x8, 1
23000000: system.cpu.execute: Log4GUI: execute: 23000000: 0: 100c8: addi x8, x8, 345: 0
23000000: system.cpu.decode: Log4GUI: decode: 23000000: 0: 100cc: lw x9, 0(x8)
23000000: system.cpu.fetch1: Log4GUI: fetch1: 23000000: 0: 100d0: <assembly>
24000000: system.cpu.writeback: Log4GUI: writeback: 24000000: 0: 100c4: auipc x8, 1
24000000: system.cpu.writeback: REGISTERS
24000000: global: x0=0x00000000
24000000: global: x1=0x0001119c
24000000: global: x2=0x000111dc
24000000: global: x3=0x00011221
24000000: global: x4=0xffffffab
24000000: global: x5=0x00000010
24000000: global: x6=0x00000000
24000000: global: x7=0x00000000
24000000: global: x8=0x000110c4
24000000: global: x9=0x00000000
24000000: global: x10=0x00000000
24000000: global: x11=0x00000000
24000000: global: x12=0x00000000
24000000: global: x13=0x00000000
24000000: global: x14=0x00000000
24000000: global: x15=0x00000000
24000000: global: x16=0x00000000
24000000: global: x17=0x00000000
24000000: global: x18=0x00000000
24000000: global: x19=0x00000000
24000000: global: x20=0x00000000
24000000: global: x21=0x00000000
24000000: global: x22=0x00000000
24000000: global: x23=0x00000000
24000000: global: x24=0x00000000
24000000: global: x25=0x00000000
24000000: global: x26=0x00000000
24000000: global: x27=0x00000000
24000000: global: x28=0x00000000
24000000: global: x29=0x00000000
24000000: global: x30=0x00000000
24000000: global: x31=0x00000000
24000000: global: f0=0x00000000
24000000: global: f1=0x4019999a
24000000: global: f2=0x00000000
24000000: global: f3=0x00000000
24000000: global: f4=0x00000000
24000000: global: f5=0x00000000
24000000: global: f6=0x00000000
24000000: global: f7=0x00000000
24000000: global: f8=0x00000000
24000000: global: f9=0x00000000
24000000: global: f10=0x00000000
24000000: global: f11=0x00000000
24000000: global: f12=0x00000000
24000000: global: f13=0x00000000
24000000: global: f14=0x00000000
24000000: global: f15=0x00000000
24000000: global: f16=0x00000000
24000000: global: f17=0x00000000
24000000: global: f18=0x00000000
24000000: global: f19=0x00000000
24000000: global: f20=0x00000000
24000000: global: f21=0x00000000
24000000: global: f22=0x00000000
24000000: global: f23=0x00000000
24000000: global: f24=0x00000000
24000000: global: f25=0x00000000
24000000: global: f26=0x00000000
24000000: global: f27=0x00000000
24000000: global: f28=0x00000000
24000000: global: f29=0x00000000
24000000: global: f30=0x00000000
24000000: global: f31=0x00000000
24000000: system.cpu.memory: Log4GUI: memory: 24000000: 0: 100c8: addi x8, x8, 345
24000000: system.cpu.execute: Log4GUI: execute: 24000000: 0: 100cc: lw x9, 0(x8): 0
24000000: system.cpu.decode: Log4GUI: decode: 24000000: 0: 100d0: auipc x11, 1
24000000: system.cpu.fetch1: Log4GUI: fetch1: 24000000: 0: 100d4: <assembly>
25000000: system.cpu.writeback: Log4GUI: writeback: 25000000: 0: 100c8: addi x8, x8, 345
25000000: system.cpu.writeback: REGISTERS
25000000: global: x0=0x00000000
25000000: global: x1=0x0001119c
25000000: global: x2=0x000111dc
25000000: global: x3=0x00011221
25000000: global: x4=0xffffffab
25000000: global: x5=0x00000010
25000000: global: x6=0x00000000
25000000: global: x7=0x00000000
25000000: global: x8=0x0001121d
25000000: global: x9=0x00000000
25000000: global: x10=0x00000000
25000000: global: x11=0x00000000
25000000: global: x12=0x00000000
25000000: global: x13=0x00000000
25000000: global: x14=0x00000000
25000000: global: x15=0x00000000
25000000: global: x16=0x00000000
25000000: global: x17=0x00000000
25000000: global: x18=0x00000000
25000000: global: x19=0x00000000
25000000: global: x20=0x00000000
25000000: global: x21=0x00000000
25000000: global: x22=0x00000000
25000000: global: x23=0x00000000
25000000: global: x24=0x00000000
25000000: global: x25=0x00000000
25000000: global: x26=0x00000000
25000000: global: x27=0x00000000
25000000: global: x28=0x00000000
25000000: global: x29=0x00000000
25000000: global: x30=0x00000000
25000000: global: x31=0x00000000
25000000: global: f0=0x00000000
25000000: global: f1=0x4019999a
25000000: global: f2=0x00000000
25000000: global: f3=0x00000000
25000000: global: f4=0x00000000
25000000: global: f5=0x00000000
25000000: global: f6=0x00000000
25000000: global: f7=0x00000000
25000000: global: f8=0x00000000
25000000: global: f9=0x00000000
25000000: global: f10=0x00000000
25000000: global: f11=0x00000000
25000000: global: f12=0x00000000
25000000: global: f13=0x00000000
25000000: global: f14=0x00000000
25000000: global: f15=0x00000000
25000000: global: f16=0x00000000
25000000: global: f17=0x00000000
25000000: global: f18=0x00000000
25000000: global: f19=0x00000000
25000000: global: f20=0x00000000
25000000: global: f21=0x00000000
25000000: global: f22=0x00000000
25000000: global: f23=0x00000000
25000000: global: f24=0x00000000
25000000: global: f25=0x00000000
25000000: global: f26=0x00000000
25000000: global: f27=0x00000000
25000000: global: f28=0x00000000
25000000: global: f29=0x00000000
25000000: global: f30=0x00000000
25000000: global: f31=0x00000000
25000000: system.cpu.memory: Log4GUI: memory: 25000000: 0: 100cc: lw x9, 0(x8)
25000000: system.cpu.execute: Log4GUI: execute: 25000000: 0: 100d0: auipc x11, 1: 0
25000000: system.cpu.decode: Log4GUI: decode: 25000000: 0: 100d4: addi x11, x11, 332
25000000: system.cpu.fetch1: Log4GUI: fetch1: 25000000: 0: 100d8: <assembly>
26000000: system.cpu.writeback: Log4GUI: writeback: 26000000: 0: 100cc: lw x9, 0(x8)
26000000: system.cpu.writeback: REGISTERS
26000000: global: x0=0x00000000
26000000: global: x1=0x0001119c
26000000: global: x2=0x000111dc
26000000: global: x3=0x00011221
26000000: global: x4=0xffffffab
26000000: global: x5=0x00000010
26000000: global: x6=0x00000000
26000000: global: x7=0x00000000
26000000: global: x8=0x0001121d
26000000: global: x9=0x7f800000
26000000: global: x10=0x00000000
26000000: global: x11=0x00000000
26000000: global: x12=0x00000000
26000000: global: x13=0x00000000
26000000: global: x14=0x00000000
26000000: global: x15=0x00000000
26000000: global: x16=0x00000000
26000000: global: x17=0x00000000
26000000: global: x18=0x00000000
26000000: global: x19=0x00000000
26000000: global: x20=0x00000000
26000000: global: x21=0x00000000
26000000: global: x22=0x00000000
26000000: global: x23=0x00000000
26000000: global: x24=0x00000000
26000000: global: x25=0x00000000
26000000: global: x26=0x00000000
26000000: global: x27=0x00000000
26000000: global: x28=0x00000000
26000000: global: x29=0x00000000
26000000: global: x30=0x00000000
26000000: global: x31=0x00000000
26000000: global: f0=0x00000000
26000000: global: f1=0x4019999a
26000000: global: f2=0x00000000
26000000: global: f3=0x00000000
26000000: global: f4=0x00000000
26000000: global: f5=0x00000000
26000000: global: f6=0x00000000
26000000: global: f7=0x00000000
26000000: global: f8=0x00000000
26000000: global: f9=0x00000000
26000000: global: f10=0x00000000
26000000: global: f11=0x00000000
26000000: global: f12=0x00000000
26000000: global: f13=0x00000000
26000000: global: f14=0x00000000
26000000: global: f15=0x00000000
26000000: global: f16=0x00000000
26000000: global: f17=0x00000000
26000000: global: f18=0x00000000
26000000: global: f19=0x00000000
26000000: global: f20=0x00000000
26000000: global: f21=0x00000000
26000000: global: f22=0x00000000
26000000: global: f23=0x00000000
26000000: global: f24=0x00000000
26000000: global: f25=0x00000000
26000000: global: f26=0x00000000
26000000: global: f27=0x00000000
26000000: global: f28=0x00000000
26000000: global: f29=0x00000000
26000000: global: f30=0x00000000
26000000: global: f31=0x00000000
26000000: system.cpu.memory: Log4GUI: memory: 26000000: 0: 100d0: auipc x11, 1
26000000: system.cpu.execute: Log4GUI: execute: 26000000: 0: 100d4: addi x11, x11, 332: 0
26000000: system.cpu.decode: Log4GUI: decode: 26000000: 0: 100d8: add x6, x0, x0
26000000: system.cpu.fetch1: Log4GUI: fetch1: 26000000: 0: 100dc: <assembly>
27000000: system.cpu.writeback: Log4GUI: writeback: 27000000: 0: 100d0: auipc x11, 1
27000000: system.cpu.writeback: REGISTERS
27000000: global: x0=0x00000000
27000000: global: x1=0x0001119c
27000000: global: x2=0x000111dc
27000000: global: x3=0x00011221
27000000: global: x4=0xffffffab
27000000: global: x5=0x00000010
27000000: global: x6=0x00000000
27000000: global: x7=0x00000000
27000000: global: x8=0x0001121d
27000000: global: x9=0x7f800000
27000000: global: x10=0x00000000
27000000: global: x11=0x000110d0
27000000: global: x12=0x00000000
27000000: global: x13=0x00000000
27000000: global: x14=0x00000000
27000000: global: x15=0x00000000
27000000: global: x16=0x00000000
27000000: global: x17=0x00000000
27000000: global: x18=0x00000000
27000000: global: x19=0x00000000
27000000: global: x20=0x00000000
27000000: global: x21=0x00000000
27000000: global: x22=0x00000000
27000000: global: x23=0x00000000
27000000: global: x24=0x00000000
27000000: global: x25=0x00000000
27000000: global: x26=0x00000000
27000000: global: x27=0x00000000
27000000: global: x28=0x00000000
27000000: global: x29=0x00000000
27000000: global: x30=0x00000000
27000000: global: x31=0x00000000
27000000: global: f0=0x00000000
27000000: global: f1=0x4019999a
27000000: global: f2=0x00000000
27000000: global: f3=0x00000000
27000000: global: f4=0x00000000
27000000: global: f5=0x00000000
27000000: global: f6=0x00000000
27000000: global: f7=0x00000000
27000000: global: f8=0x00000000
27000000: global: f9=0x00000000
27000000: global: f10=0x00000000
27000000: global: f11=0x00000000
27000000: global: f12=0x00000000
27000000: global: f13=0x00000000
27000000: global: f14=0x00000000
27000000: global: f15=0x00000000
27000000: global: f16=0x00000000
27000000: global: f17=0x00000000
27000000: global: f18=0x00000000
27000000: global: f19=0x00000000
27000000: global: f20=0x00000000
27000000: global: f21=0x00000000
27000000: global: f22=0x00000000
27000000: global: f23=0x00000000
27000000: global: f24=0x00000000
27000000: global: f25=0x00000000
27000000: global: f26=0x00000000
27000000: global: f27=0x00000000
27000000: global: f28=0x00000000
27000000: global: f29=0x00000000
27000000: global: f30=0x00000000
27000000: global: f31=0x00000000
27000000: system.cpu.memory: Log4GUI: memory: 27000000: 0: 100d4: addi x11, x11, 332
27000000: system.cpu.execute: Log4GUI: execute: 27000000: 0: 100d8: add x6, x0, x0: 0
27000000: system.cpu.decode: Log4GUI: decode: 27000000: 0: 100dc: slli x7, x6, 2
27000000: system.cpu.fetch1: Log4GUI: fetch1: 27000000: 0: 100e0: <assembly>
28000000: system.cpu.writeback: Log4GUI: writeback: 28000000: 0: 100d4: addi x11, x11, 332
28000000: system.cpu.writeback: REGISTERS
28000000: global: x0=0x00000000
28000000: global: x1=0x0001119c
28000000: global: x2=0x000111dc
28000000: global: x3=0x00011221
28000000: global: x4=0xffffffab
28000000: global: x5=0x00000010
28000000: global: x6=0x00000000
28000000: global: x7=0x00000000
28000000: global: x8=0x0001121d
28000000: global: x9=0x7f800000
28000000: global: x10=0x00000000
28000000: global: x11=0x0001121c
28000000: global: x12=0x00000000
28000000: global: x13=0x00000000
28000000: global: x14=0x00000000
28000000: global: x15=0x00000000
28000000: global: x16=0x00000000
28000000: global: x17=0x00000000
28000000: global: x18=0x00000000
28000000: global: x19=0x00000000
28000000: global: x20=0x00000000
28000000: global: x21=0x00000000
28000000: global: x22=0x00000000
28000000: global: x23=0x00000000
28000000: global: x24=0x00000000
28000000: global: x25=0x00000000
28000000: global: x26=0x00000000
28000000: global: x27=0x00000000
28000000: global: x28=0x00000000
28000000: global: x29=0x00000000
28000000: global: x30=0x00000000
28000000: global: x31=0x00000000
28000000: global: f0=0x00000000
28000000: global: f1=0x4019999a
28000000: global: f2=0x00000000
28000000: global: f3=0x00000000
28000000: global: f4=0x00000000
28000000: global: f5=0x00000000
28000000: global: f6=0x00000000
28000000: global: f7=0x00000000
28000000: global: f8=0x00000000
28000000: global: f9=0x00000000
28000000: global: f10=0x00000000
28000000: global: f11=0x00000000
28000000: global: f12=0x00000000
28000000: global: f13=0x00000000
28000000: global: f14=0x00000000
28000000: global: f15=0x00000000
28000000: global: f16=0x00000000
28000000: global: f17=0x00000000
28000000: global: f18=0x00000000
28000000: global: f19=0x00000000
28000000: global: f20=0x00000000
28000000: global: f21=0x00000000
28000000: global: f22=0x00000000
28000000: global: f23=0x00000000
28000000: global: f24=0x00000000
28000000: global: f25=0x00000000
28000000: global: f26=0x00000000
28000000: global: f27=0x00000000
28000000: global: f28=0x00000000
28000000: global: f29=0x00000000
28000000: global: f30=0x00000000
28000000: global: f31=0x00000000
28000000: system.cpu.memory: Log4GUI: memory: 28000000: 0: 100d8: add x6, x0, x0
28000000: system.cpu.execute: Log4GUI: execute: 28000000: 0: 100dc: slli x7, x6, 2: 0
28000000: system.cpu.decode: Log4GUI: decode: 28000000: 0: 100e0: fcvt_s_w f3, x4
28000000: system.cpu.fetch1: Log4GUI: fetch1: 28000000: 0: 100e4: <assembly>
29000000: system.cpu.writeback: Log4GUI: writeback: 29000000: 0: 100d8: add x6, x0, x0
29000000: system.cpu.writeback: REGISTERS
29000000: global: x0=0x00000000
29000000: global: x1=0x0001119c
29000000: global: x2=0x000111dc
29000000: global: x3=0x00011221
29000000: global: x4=0xffffffab
29000000: global: x5=0x00000010
29000000: global: x6=0x00000000
29000000: global: x7=0x00000000
29000000: global: x8=0x0001121d
29000000: global: x9=0x7f800000
29000000: global: x10=0x00000000
29000000: global: x11=0x0001121c
29000000: global: x12=0x00000000
29000000: global: x13=0x00000000
29000000: global: x14=0x00000000
29000000: global: x15=0x00000000
29000000: global: x16=0x00000000
29000000: global: x17=0x00000000
29000000: global: x18=0x00000000
29000000: global: x19=0x00000000
29000000: global: x20=0x00000000
29000000: global: x21=0x00000000
29000000: global: x22=0x00000000
29000000: global: x23=0x00000000
29000000: global: x24=0x00000000
29000000: global: x25=0x00000000
29000000: global: x26=0x00000000
29000000: global: x27=0x00000000
29000000: global: x28=0x00000000
29000000: global: x29=0x00000000
29000000: global: x30=0x00000000
29000000: global: x31=0x00000000
29000000: global: f0=0x00000000
29000000: global: f1=0x4019999a
29000000: global: f2=0x00000000
29000000: global: f3=0x00000000
29000000: global: f4=0x00000000
29000000: global: f5=0x00000000
29000000: global: f6=0x00000000
29000000: global: f7=0x00000000
29000000: global: f8=0x00000000
29000000: global: f9=0x00000000
29000000: global: f10=0x00000000
29000000: global: f11=0x00000000
29000000: global: f12=0x00000000
29000000: global: f13=0x00000000
29000000: global: f14=0x00000000
29000000: global: f15=0x00000000
29000000: global: f16=0x00000000
29000000: global: f17=0x00000000
29000000: global: f18=0x00000000
29000000: global: f19=0x00000000
29000000: global: f20=0x00000000
29000000: global: f21=0x00000000
29000000: global: f22=0x00000000
29000000: global: f23=0x00000000
29000000: global: f24=0x00000000
29000000: global: f25=0x00000000
29000000: global: f26=0x00000000
29000000: global: f27=0x00000000
29000000: global: f28=0x00000000
29000000: global: f29=0x00000000
29000000: global: f30=0x00000000
29000000: global: f31=0x00000000
29000000: system.cpu.memory: Log4GUI: memory: 29000000: 0: 100dc: slli x7, x6, 2
29000000: system.cpu.execute: Log4GUI: execute: 29000000: 0: 100e0: fcvt_s_w f3, x4: 3
29000000: system.cpu.decode: Log4GUI: decode: 29000000: 0: 100e4: fmv_w_x f5, x0
29000000: system.cpu.fetch1: Log4GUI: fetch1: 29000000: 0: 100e8: <assembly>
30000000: system.cpu.writeback: Log4GUI: writeback: 30000000: 0: 100dc: slli x7, x6, 2
30000000: system.cpu.writeback: REGISTERS
30000000: global: x0=0x00000000
30000000: global: x1=0x0001119c
30000000: global: x2=0x000111dc
30000000: global: x3=0x00011221
30000000: global: x4=0xffffffab
30000000: global: x5=0x00000010
30000000: global: x6=0x00000000
30000000: global: x7=0x00000000
30000000: global: x8=0x0001121d
30000000: global: x9=0x7f800000
30000000: global: x10=0x00000000
30000000: global: x11=0x0001121c
30000000: global: x12=0x00000000
30000000: global: x13=0x00000000
30000000: global: x14=0x00000000
30000000: global: x15=0x00000000
30000000: global: x16=0x00000000
30000000: global: x17=0x00000000
30000000: global: x18=0x00000000
30000000: global: x19=0x00000000
30000000: global: x20=0x00000000
30000000: global: x21=0x00000000
30000000: global: x22=0x00000000
30000000: global: x23=0x00000000
30000000: global: x24=0x00000000
30000000: global: x25=0x00000000
30000000: global: x26=0x00000000
30000000: global: x27=0x00000000
30000000: global: x28=0x00000000
30000000: global: x29=0x00000000
30000000: global: x30=0x00000000
30000000: global: x31=0x00000000
30000000: global: f0=0x00000000
30000000: global: f1=0x4019999a
30000000: global: f2=0x00000000
30000000: global: f3=0x00000000
30000000: global: f4=0x00000000
30000000: global: f5=0x00000000
30000000: global: f6=0x00000000
30000000: global: f7=0x00000000
30000000: global: f8=0x00000000
30000000: global: f9=0x00000000
30000000: global: f10=0x00000000
30000000: global: f11=0x00000000
30000000: global: f12=0x00000000
30000000: global: f13=0x00000000
30000000: global: f14=0x00000000
30000000: global: f15=0x00000000
30000000: global: f16=0x00000000
30000000: global: f17=0x00000000
30000000: global: f18=0x00000000
30000000: global: f19=0x00000000
30000000: global: f20=0x00000000
30000000: global: f21=0x00000000
30000000: global: f22=0x00000000
30000000: global: f23=0x00000000
30000000: global: f24=0x00000000
30000000: global: f25=0x00000000
30000000: global: f26=0x00000000
30000000: global: f27=0x00000000
30000000: global: f28=0x00000000
30000000: global: f29=0x00000000
30000000: global: f30=0x00000000
30000000: global: f31=0x00000000
30000000: system.cpu.execute: Log4GUI: execute: 30000000: 0: 100e4: fmv_w_x f5, x0: 3
30000000: system.cpu.execute: Log4GUI: execute: 30000000: 0: 100e0: fcvt_s_w f3, x4: 3
30000000: system.cpu.decode: Log4GUI: decode: 30000000: 0: 100e8: beq x6, x5, 136
30000000: system.cpu.fetch1: Log4GUI: fetch1: 30000000: 0: 100ec: <assembly>
31000000: system.cpu.execute: Log4GUI: execute: 31000000: 0: 100e8: beq x6, x5, 136: 0
31000000: system.cpu.execute: Log4GUI: execute: 31000000: 0: 100e0: fcvt_s_w f3, x4: 3
31000000: system.cpu.execute: Log4GUI: execute: 31000000: 0: 100e4: fmv_w_x f5, x0: 3
31000000: system.cpu.decode: Log4GUI: decode: 31000000: 0: 100ec: add x12, x1, x7
31000000: system.cpu.fetch1: Log4GUI: fetch1: 31000000: 0: 100f0: <assembly>
32000000: system.cpu.memory: Log4GUI: memory: 32000000: 0: 100e8: beq x6, x5, 136
32000000: system.cpu.execute: Log4GUI: execute: 32000000: 0: 100ec: add x12, x1, x7: 0
32000000: system.cpu.execute: Log4GUI: execute: 32000000: 0: 100e0: fcvt_s_w f3, x4: 3
32000000: system.cpu.execute: Log4GUI: execute: 32000000: 0: 100e4: fmv_w_x f5, x0: 3
32000000: system.cpu.decode: Log4GUI: decode: 32000000: 0: 100f0: flw f1, 0(x12)
32000000: system.cpu.fetch1: Log4GUI: fetch1: 32000000: 0: 100f4: <assembly>
33000000: system.cpu.writeback: Log4GUI: writeback: 33000000: 0: 100e8: beq x6, x5, 136
33000000: system.cpu.writeback: REGISTERS
33000000: global: x0=0x00000000
33000000: global: x1=0x0001119c
33000000: global: x2=0x000111dc
33000000: global: x3=0x00011221
33000000: global: x4=0xffffffab
33000000: global: x5=0x00000010
33000000: global: x6=0x00000000
33000000: global: x7=0x00000000
33000000: global: x8=0x0001121d
33000000: global: x9=0x7f800000
33000000: global: x10=0x00000000
33000000: global: x11=0x0001121c
33000000: global: x12=0x00000000
33000000: global: x13=0x00000000
33000000: global: x14=0x00000000
33000000: global: x15=0x00000000
33000000: global: x16=0x00000000
33000000: global: x17=0x00000000
33000000: global: x18=0x00000000
33000000: global: x19=0x00000000
33000000: global: x20=0x00000000
33000000: global: x21=0x00000000
33000000: global: x22=0x00000000
33000000: global: x23=0x00000000
33000000: global: x24=0x00000000
33000000: global: x25=0x00000000
33000000: global: x26=0x00000000
33000000: global: x27=0x00000000
33000000: global: x28=0x00000000
33000000: global: x29=0x00000000
33000000: global: x30=0x00000000
33000000: global: x31=0x00000000
33000000: global: f0=0x00000000
33000000: global: f1=0x4019999a
33000000: global: f2=0x00000000
33000000: global: f3=0x00000000
33000000: global: f4=0x00000000
33000000: global: f5=0x00000000
33000000: global: f6=0x00000000
33000000: global: f7=0x00000000
33000000: global: f8=0x00000000
33000000: global: f9=0x00000000
33000000: global: f10=0x00000000
33000000: global: f11=0x00000000
33000000: global: f12=0x00000000
33000000: global: f13=0x00000000
33000000: global: f14=0x00000000
33000000: global: f15=0x00000000
33000000: global: f16=0x00000000
33000000: global: f17=0x00000000
33000000: global: f18=0x00000000
33000000: global: f19=0x00000000
33000000: global: f20=0x00000000
33000000: global: f21=0x00000000
33000000: global: f22=0x00000000
33000000: global: f23=0x00000000
33000000: global: f24=0x00000000
33000000: global: f25=0x00000000
33000000: global: f26=0x00000000
33000000: global: f27=0x00000000
33000000: global: f28=0x00000000
33000000: global: f29=0x00000000
33000000: global: f30=0x00000000
33000000: global: f31=0x00000000
33000000: system.cpu.memory: Log4GUI: memory: 33000000: 0: 100e0: fcvt_s_w f3, x4
33000000: system.cpu.execute: Log4GUI: execute: 33000000: 0: 100e4: fmv_w_x f5, x0: 3
33000000: system.cpu.execute: Log4GUI: execute: 33000000: 1: 100ec: add x12, x1, x7: 0
33000000: system.cpu.decode: Log4GUI: decode: 33000000: 1: 100f0: flw f1, 0(x12)
33000000: system.cpu.fetch1: Log4GUI: fetch1: 33000000: 1: 100f4: <assembly>
34000000: system.cpu.writeback: Log4GUI: writeback: 34000000: 0: 100e0: fcvt_s_w f3, x4
34000000: system.cpu.writeback: REGISTERS
34000000: global: x0=0x00000000
34000000: global: x1=0x0001119c
34000000: global: x2=0x000111dc
34000000: global: x3=0x00011221
34000000: global: x4=0xffffffab
34000000: global: x5=0x00000010
34000000: global: x6=0x00000000
34000000: global: x7=0x00000000
34000000: global: x8=0x0001121d
34000000: global: x9=0x7f800000
34000000: global: x10=0x00000000
34000000: global: x11=0x0001121c
34000000: global: x12=0x00000000
34000000: global: x13=0x00000000
34000000: global: x14=0x00000000
34000000: global: x15=0x00000000
34000000: global: x16=0x00000000
34000000: global: x17=0x00000000
34000000: global: x18=0x00000000
34000000: global: x19=0x00000000
34000000: global: x20=0x00000000
34000000: global: x21=0x00000000
34000000: global: x22=0x00000000
34000000: global: x23=0x00000000
34000000: global: x24=0x00000000
34000000: global: x25=0x00000000
34000000: global: x26=0x00000000
34000000: global: x27=0x00000000
34000000: global: x28=0x00000000
34000000: global: x29=0x00000000
34000000: global: x30=0x00000000
34000000: global: x31=0x00000000
34000000: global: f0=0x00000000
34000000: global: f1=0x4019999a
34000000: global: f2=0x00000000
34000000: global: f3=0xc2aa0000
34000000: global: f4=0x00000000
34000000: global: f5=0x00000000
34000000: global: f6=0x00000000
34000000: global: f7=0x00000000
34000000: global: f8=0x00000000
34000000: global: f9=0x00000000
34000000: global: f10=0x00000000
34000000: global: f11=0x00000000
34000000: global: f12=0x00000000
34000000: global: f13=0x00000000
34000000: global: f14=0x00000000
34000000: global: f15=0x00000000
34000000: global: f16=0x00000000
34000000: global: f17=0x00000000
34000000: global: f18=0x00000000
34000000: global: f19=0x00000000
34000000: global: f20=0x00000000
34000000: global: f21=0x00000000
34000000: global: f22=0x00000000
34000000: global: f23=0x00000000
34000000: global: f24=0x00000000
34000000: global: f25=0x00000000
34000000: global: f26=0x00000000
34000000: global: f27=0x00000000
34000000: global: f28=0x00000000
34000000: global: f29=0x00000000
34000000: global: f30=0x00000000
34000000: global: f31=0x00000000
34000000: system.cpu.memory: Log4GUI: memory: 34000000: 0: 100e4: fmv_w_x f5, x0
34000000: system.cpu.decode: Log4GUI: decode: 34000000: 1: 100f0: flw f1, 0(x12)
34000000: system.cpu.fetch1: Log4GUI: fetch1: 34000000: 1: 100f4: <assembly>
35000000: system.cpu.writeback: Log4GUI: writeback: 35000000: 0: 100e4: fmv_w_x f5, x0
35000000: system.cpu.writeback: REGISTERS
35000000: global: x0=0x00000000
35000000: global: x1=0x0001119c
35000000: global: x2=0x000111dc
35000000: global: x3=0x00011221
35000000: global: x4=0xffffffab
35000000: global: x5=0x00000010
35000000: global: x6=0x00000000
35000000: global: x7=0x00000000
35000000: global: x8=0x0001121d
35000000: global: x9=0x7f800000
35000000: global: x10=0x00000000
35000000: global: x11=0x0001121c
35000000: global: x12=0x00000000
35000000: global: x13=0x00000000
35000000: global: x14=0x00000000
35000000: global: x15=0x00000000
35000000: global: x16=0x00000000
35000000: global: x17=0x00000000
35000000: global: x18=0x00000000
35000000: global: x19=0x00000000
35000000: global: x20=0x00000000
35000000: global: x21=0x00000000
35000000: global: x22=0x00000000
35000000: global: x23=0x00000000
35000000: global: x24=0x00000000
35000000: global: x25=0x00000000
35000000: global: x26=0x00000000
35000000: global: x27=0x00000000
35000000: global: x28=0x00000000
35000000: global: x29=0x00000000
35000000: global: x30=0x00000000
35000000: global: x31=0x00000000
35000000: global: f0=0x00000000
35000000: global: f1=0x4019999a
35000000: global: f2=0x00000000
35000000: global: f3=0xc2aa0000
35000000: global: f4=0x00000000
35000000: global: f5=0x00000000
35000000: global: f6=0x00000000
35000000: global: f7=0x00000000
35000000: global: f8=0x00000000
35000000: global: f9=0x00000000
35000000: global: f10=0x00000000
35000000: global: f11=0x00000000
35000000: global: f12=0x00000000
35000000: global: f13=0x00000000
35000000: global: f14=0x00000000
35000000: global: f15=0x00000000
35000000: global: f16=0x00000000
35000000: global: f17=0x00000000
35000000: global: f18=0x00000000
35000000: global: f19=0x00000000
35000000: global: f20=0x00000000
35000000: global: f21=0x00000000
35000000: global: f22=0x00000000
35000000: global: f23=0x00000000
35000000: global: f24=0x00000000
35000000: global: f25=0x00000000
35000000: global: f26=0x00000000
35000000: global: f27=0x00000000
35000000: global: f28=0x00000000
35000000: global: f29=0x00000000
35000000: global: f30=0x00000000
35000000: global: f31=0x00000000
35000000: system.cpu.memory: Log4GUI: memory: 35000000: 0: 100ec: add x12, x1, x7
35000000: system.cpu.execute: Log4GUI: execute: 35000000: 0: 100f0: flw f1, 0(x12): 0
35000000: system.cpu.decode: Log4GUI: decode: 35000000: 0: 100f4: add x12, x2, x7
35000000: system.cpu.fetch1: Log4GUI: fetch1: 35000000: 0: 100f8: <assembly>
36000000: system.cpu.writeback: Log4GUI: writeback: 36000000: 0: 100ec: add x12, x1, x7
36000000: system.cpu.writeback: REGISTERS
36000000: global: x0=0x00000000
36000000: global: x1=0x0001119c
36000000: global: x2=0x000111dc
36000000: global: x3=0x00011221
36000000: global: x4=0xffffffab
36000000: global: x5=0x00000010
36000000: global: x6=0x00000000
36000000: global: x7=0x00000000
36000000: global: x8=0x0001121d
36000000: global: x9=0x7f800000
36000000: global: x10=0x00000000
36000000: global: x11=0x0001121c
36000000: global: x12=0x0001119c
36000000: global: x13=0x00000000
36000000: global: x14=0x00000000
36000000: global: x15=0x00000000
36000000: global: x16=0x00000000
36000000: global: x17=0x00000000
36000000: global: x18=0x00000000
36000000: global: x19=0x00000000
36000000: global: x20=0x00000000
36000000: global: x21=0x00000000
36000000: global: x22=0x00000000
36000000: global: x23=0x00000000
36000000: global: x24=0x00000000
36000000: global: x25=0x00000000
36000000: global: x26=0x00000000
36000000: global: x27=0x00000000
36000000: global: x28=0x00000000
36000000: global: x29=0x00000000
36000000: global: x30=0x00000000
36000000: global: x31=0x00000000
36000000: global: f0=0x00000000
36000000: global: f1=0x4019999a
36000000: global: f2=0x00000000
36000000: global: f3=0xc2aa0000
36000000: global: f4=0x00000000
36000000: global: f5=0x00000000
36000000: global: f6=0x00000000
36000000: global: f7=0x00000000
36000000: global: f8=0x00000000
36000000: global: f9=0x00000000
36000000: global: f10=0x00000000
36000000: global: f11=0x00000000
36000000: global: f12=0x00000000
36000000: global: f13=0x00000000
36000000: global: f14=0x00000000
36000000: global: f15=0x00000000
36000000: global: f16=0x00000000
36000000: global: f17=0x00000000
36000000: global: f18=0x00000000
36000000: global: f19=0x00000000
36000000: global: f20=0x00000000
36000000: global: f21=0x00000000
36000000: global: f22=0x00000000
36000000: global: f23=0x00000000
36000000: global: f24=0x00000000
36000000: global: f25=0x00000000
36000000: global: f26=0x00000000
36000000: global: f27=0x00000000
36000000: global: f28=0x00000000
36000000: global: f29=0x00000000
36000000: global: f30=0x00000000
36000000: global: f31=0x00000000
36000000: system.cpu.memory: Log4GUI: memory: 36000000: 0: 100f0: flw f1, 0(x12)
36000000: system.cpu.execute: Log4GUI: execute: 36000000: 0: 100f4: add x12, x2, x7: 0
36000000: system.cpu.decode: Log4GUI: decode: 36000000: 0: 100f8: flw f2, 0(x12)
36000000: system.cpu.fetch1: Log4GUI: fetch1: 36000000: 0: 100fc: <assembly>
37000000: system.cpu.writeback: Log4GUI: writeback: 37000000: 0: 100f0: flw f1, 0(x12)
37000000: system.cpu.writeback: REGISTERS
37000000: global: x0=0x00000000
37000000: global: x1=0x0001119c
37000000: global: x2=0x000111dc
37000000: global: x3=0x00011221
37000000: global: x4=0xffffffab
37000000: global: x5=0x00000010
37000000: global: x6=0x00000000
37000000: global: x7=0x00000000
37000000: global: x8=0x0001121d
37000000: global: x9=0x7f800000
37000000: global: x10=0x00000000
37000000: global: x11=0x0001121c
37000000: global: x12=0x0001119c
37000000: global: x13=0x00000000
37000000: global: x14=0x00000000
37000000: global: x15=0x00000000
37000000: global: x16=0x00000000
37000000: global: x17=0x00000000
37000000: global: x18=0x00000000
37000000: global: x19=0x00000000
37000000: global: x20=0x00000000
37000000: global: x21=0x00000000
37000000: global: x22=0x00000000
37000000: global: x23=0x00000000
37000000: global: x24=0x00000000
37000000: global: x25=0x00000000
37000000: global: x26=0x00000000
37000000: global: x27=0x00000000
37000000: global: x28=0x00000000
37000000: global: x29=0x00000000
37000000: global: x30=0x00000000
37000000: global: x31=0x00000000
37000000: global: f0=0x00000000
37000000: global: f1=0x40933333
37000000: global: f2=0x00000000
37000000: global: f3=0xc2aa0000
37000000: global: f4=0x00000000
37000000: global: f5=0x00000000
37000000: global: f6=0x00000000
37000000: global: f7=0x00000000
37000000: global: f8=0x00000000
37000000: global: f9=0x00000000
37000000: global: f10=0x00000000
37000000: global: f11=0x00000000
37000000: global: f12=0x00000000
37000000: global: f13=0x00000000
37000000: global: f14=0x00000000
37000000: global: f15=0x00000000
37000000: global: f16=0x00000000
37000000: global: f17=0x00000000
37000000: global: f18=0x00000000
37000000: global: f19=0x00000000
37000000: global: f20=0x00000000
37000000: global: f21=0x00000000
37000000: global: f22=0x00000000
37000000: global: f23=0x00000000
37000000: global: f24=0x00000000
37000000: global: f25=0x00000000
37000000: global: f26=0x00000000
37000000: global: f27=0x00000000
37000000: global: f28=0x00000000
37000000: global: f29=0x00000000
37000000: global: f30=0x00000000
37000000: global: f31=0x00000000
37000000: system.cpu.memory: Log4GUI: memory: 37000000: 0: 100f4: add x12, x2, x7
37000000: system.cpu.execute: Log4GUI: execute: 37000000: 0: 100f8: flw f2, 0(x12): 0
37000000: system.cpu.decode: Log4GUI: decode: 37000000: 0: 100fc: addi x6, x6, 1
37000000: system.cpu.fetch1: Log4GUI: fetch1: 37000000: 0: 10100: <assembly>
38000000: system.cpu.writeback: Log4GUI: writeback: 38000000: 0: 100f4: add x12, x2, x7
38000000: system.cpu.writeback: REGISTERS
38000000: global: x0=0x00000000
38000000: global: x1=0x0001119c
38000000: global: x2=0x000111dc
38000000: global: x3=0x00011221
38000000: global: x4=0xffffffab
38000000: global: x5=0x00000010
38000000: global: x6=0x00000000
38000000: global: x7=0x00000000
38000000: global: x8=0x0001121d
38000000: global: x9=0x7f800000
38000000: global: x10=0x00000000
38000000: global: x11=0x0001121c
38000000: global: x12=0x000111dc
38000000: global: x13=0x00000000
38000000: global: x14=0x00000000
38000000: global: x15=0x00000000
38000000: global: x16=0x00000000
38000000: global: x17=0x00000000
38000000: global: x18=0x00000000
38000000: global: x19=0x00000000
38000000: global: x20=0x00000000
38000000: global: x21=0x00000000
38000000: global: x22=0x00000000
38000000: global: x23=0x00000000
38000000: global: x24=0x00000000
38000000: global: x25=0x00000000
38000000: global: x26=0x00000000
38000000: global: x27=0x00000000
38000000: global: x28=0x00000000
38000000: global: x29=0x00000000
38000000: global: x30=0x00000000
38000000: global: x31=0x00000000
38000000: global: f0=0x00000000
38000000: global: f1=0x40933333
38000000: global: f2=0x00000000
38000000: global: f3=0xc2aa0000
38000000: global: f4=0x00000000
38000000: global: f5=0x00000000
38000000: global: f6=0x00000000
38000000: global: f7=0x00000000
38000000: global: f8=0x00000000
38000000: global: f9=0x00000000
38000000: global: f10=0x00000000
38000000: global: f11=0x00000000
38000000: global: f12=0x00000000
38000000: global: f13=0x00000000
38000000: global: f14=0x00000000
38000000: global: f15=0x00000000
38000000: global: f16=0x00000000
38000000: global: f17=0x00000000
38000000: global: f18=0x00000000
38000000: global: f19=0x00000000
38000000: global: f20=0x00000000
38000000: global: f21=0x00000000
38000000: global: f22=0x00000000
38000000: global: f23=0x00000000
38000000: global: f24=0x00000000
38000000: global: f25=0x00000000
38000000: global: f26=0x00000000
38000000: global: f27=0x00000000
38000000: global: f28=0x00000000
38000000: global: f29=0x00000000
38000000: global: f30=0x00000000
38000000: global: f31=0x00000000
38000000: system.cpu.memory: Log4GUI: memory: 38000000: 0: 100f8: flw f2, 0(x12)
38000000: system.cpu.execute: Log4GUI: execute: 38000000: 0: 100fc: addi x6, x6, 1: 0
38000000: system.cpu.decode: Log4GUI: decode: 38000000: 0: 10100: slli x7, x6, 2
38000000: system.cpu.fetch1: Log4GUI: fetch1: 38000000: 0: 10104: <assembly>
39000000: system.cpu.writeback: Log4GUI: writeback: 39000000: 0: 100f8: flw f2, 0(x12)
39000000: system.cpu.writeback: REGISTERS
39000000: global: x0=0x00000000
39000000: global: x1=0x0001119c
39000000: global: x2=0x000111dc
39000000: global: x3=0x00011221
39000000: global: x4=0xffffffab
39000000: global: x5=0x00000010
39000000: global: x6=0x00000000
39000000: global: x7=0x00000000
39000000: global: x8=0x0001121d
39000000: global: x9=0x7f800000
39000000: global: x10=0x00000000
39000000: global: x11=0x0001121c
39000000: global: x12=0x000111dc
39000000: global: x13=0x00000000
39000000: global: x14=0x00000000
39000000: global: x15=0x00000000
39000000: global: x16=0x00000000
39000000: global: x17=0x00000000
39000000: global: x18=0x00000000
39000000: global: x19=0x00000000
39000000: global: x20=0x00000000
39000000: global: x21=0x00000000
39000000: global: x22=0x00000000
39000000: global: x23=0x00000000
39000000: global: x24=0x00000000
39000000: global: x25=0x00000000
39000000: global: x26=0x00000000
39000000: global: x27=0x00000000
39000000: global: x28=0x00000000
39000000: global: x29=0x00000000
39000000: global: x30=0x00000000
39000000: global: x31=0x00000000
39000000: global: f0=0x00000000
39000000: global: f1=0x40933333
39000000: global: f2=0x4019999a
39000000: global: f3=0xc2aa0000
39000000: global: f4=0x00000000
39000000: global: f5=0x00000000
39000000: global: f6=0x00000000
39000000: global: f7=0x00000000
39000000: global: f8=0x00000000
39000000: global: f9=0x00000000
39000000: global: f10=0x00000000
39000000: global: f11=0x00000000
39000000: global: f12=0x00000000
39000000: global: f13=0x00000000
39000000: global: f14=0x00000000
39000000: global: f15=0x00000000
39000000: global: f16=0x00000000
39000000: global: f17=0x00000000
39000000: global: f18=0x00000000
39000000: global: f19=0x00000000
39000000: global: f20=0x00000000
39000000: global: f21=0x00000000
39000000: global: f22=0x00000000
39000000: global: f23=0x00000000
39000000: global: f24=0x00000000
39000000: global: f25=0x00000000
39000000: global: f26=0x00000000
39000000: global: f27=0x00000000
39000000: global: f28=0x00000000
39000000: global: f29=0x00000000
39000000: global: f30=0x00000000
39000000: global: f31=0x00000000
39000000: system.cpu.memory: Log4GUI: memory: 39000000: 0: 100fc: addi x6, x6, 1
39000000: system.cpu.execute: Log4GUI: execute: 39000000: 0: 10100: slli x7, x6, 2: 0
39000000: system.cpu.decode: Log4GUI: decode: 39000000: 0: 10104: add x12, x1, x7
39000000: system.cpu.fetch1: Log4GUI: fetch1: 39000000: 0: 10108: <assembly>
40000000: system.cpu.writeback: Log4GUI: writeback: 40000000: 0: 100fc: addi x6, x6, 1
40000000: system.cpu.writeback: REGISTERS
40000000: global: x0=0x00000000
40000000: global: x1=0x0001119c
40000000: global: x2=0x000111dc
40000000: global: x3=0x00011221
40000000: global: x4=0xffffffab
40000000: global: x5=0x00000010
40000000: global: x6=0x00000001
40000000: global: x7=0x00000000
40000000: global: x8=0x0001121d
40000000: global: x9=0x7f800000
40000000: global: x10=0x00000000
40000000: global: x11=0x0001121c
40000000: global: x12=0x000111dc
40000000: global: x13=0x00000000
40000000: global: x14=0x00000000
40000000: global: x15=0x00000000
40000000: global: x16=0x00000000
40000000: global: x17=0x00000000
40000000: global: x18=0x00000000
40000000: global: x19=0x00000000
40000000: global: x20=0x00000000
40000000: global: x21=0x00000000
40000000: global: x22=0x00000000
40000000: global: x23=0x00000000
40000000: global: x24=0x00000000
40000000: global: x25=0x00000000
40000000: global: x26=0x00000000
40000000: global: x27=0x00000000
40000000: global: x28=0x00000000
40000000: global: x29=0x00000000
40000000: global: x30=0x00000000
40000000: global: x31=0x00000000
40000000: global: f0=0x00000000
40000000: global: f1=0x40933333
40000000: global: f2=0x4019999a
40000000: global: f3=0xc2aa0000
40000000: global: f4=0x00000000
40000000: global: f5=0x00000000
40000000: global: f6=0x00000000
40000000: global: f7=0x00000000
40000000: global: f8=0x00000000
40000000: global: f9=0x00000000
40000000: global: f10=0x00000000
40000000: global: f11=0x00000000
40000000: global: f12=0x00000000
40000000: global: f13=0x00000000
40000000: global: f14=0x00000000
40000000: global: f15=0x00000000
40000000: global: f16=0x00000000
40000000: global: f17=0x00000000
40000000: global: f18=0x00000000
40000000: global: f19=0x00000000
40000000: global: f20=0x00000000
40000000: global: f21=0x00000000
40000000: global: f22=0x00000000
40000000: global: f23=0x00000000
40000000: global: f24=0x00000000
40000000: global: f25=0x00000000
40000000: global: f26=0x00000000
40000000: global: f27=0x00000000
40000000: global: f28=0x00000000
40000000: global: f29=0x00000000
40000000: global: f30=0x00000000
40000000: global: f31=0x00000000
40000000: system.cpu.memory: Log4GUI: memory: 40000000: 0: 10100: slli x7, x6, 2
40000000: system.cpu.execute: Log4GUI: execute: 40000000: 0: 10104: add x12, x1, x7: 0
40000000: system.cpu.decode: Log4GUI: decode: 40000000: 0: 10108: flw f6, 0(x12)
40000000: system.cpu.fetch1: Log4GUI: fetch1: 40000000: 0: 1010c: <assembly>
41000000: system.cpu.writeback: Log4GUI: writeback: 41000000: 0: 10100: slli x7, x6, 2
41000000: system.cpu.writeback: REGISTERS
41000000: global: x0=0x00000000
41000000: global: x1=0x0001119c
41000000: global: x2=0x000111dc
41000000: global: x3=0x00011221
41000000: global: x4=0xffffffab
41000000: global: x5=0x00000010
41000000: global: x6=0x00000001
41000000: global: x7=0x00000004
41000000: global: x8=0x0001121d
41000000: global: x9=0x7f800000
41000000: global: x10=0x00000000
41000000: global: x11=0x0001121c
41000000: global: x12=0x000111dc
41000000: global: x13=0x00000000
41000000: global: x14=0x00000000
41000000: global: x15=0x00000000
41000000: global: x16=0x00000000
41000000: global: x17=0x00000000
41000000: global: x18=0x00000000
41000000: global: x19=0x00000000
41000000: global: x20=0x00000000
41000000: global: x21=0x00000000
41000000: global: x22=0x00000000
41000000: global: x23=0x00000000
41000000: global: x24=0x00000000
41000000: global: x25=0x00000000
41000000: global: x26=0x00000000
41000000: global: x27=0x00000000
41000000: global: x28=0x00000000
41000000: global: x29=0x00000000
41000000: global: x30=0x00000000
41000000: global: x31=0x00000000
41000000: global: f0=0x00000000
41000000: global: f1=0x40933333
41000000: global: f2=0x4019999a
41000000: global: f3=0xc2aa0000
41000000: global: f4=0x00000000
41000000: global: f5=0x00000000
41000000: global: f6=0x00000000
41000000: global: f7=0x00000000
41000000: global: f8=0x00000000
41000000: global: f9=0x00000000
41000000: global: f10=0x00000000
41000000: global: f11=0x00000000
41000000: global: f12=0x00000000
41000000: global: f13=0x00000000
41000000: global: f14=0x00000000
41000000: global: f15=0x00000000
41000000: global: f16=0x00000000
41000000: global: f17=0x00000000
41000000: global: f18=0x00000000
41000000: global: f19=0x00000000
41000000: global: f20=0x00000000
41000000: global: f21=0x00000000
41000000: global: f22=0x00000000
41000000: global: f23=0x00000000
41000000: global: f24=0x00000000
41000000: global: f25=0x00000000
41000000: global: f26=0x00000000
41000000: global: f27=0x00000000
41000000: global: f28=0x00000000
41000000: global: f29=0x00000000
41000000: global: f30=0x00000000
41000000: global: f31=0x00000000
41000000: system.cpu.memory: Log4GUI: memory: 41000000: 0: 10104: add x12, x1, x7
41000000: system.cpu.execute: Log4GUI: execute: 41000000: 0: 10108: flw f6, 0(x12): 0
41000000: system.cpu.decode: Log4GUI: decode: 41000000: 0: 1010c: add x12, x2, x7
41000000: system.cpu.fetch1: Log4GUI: fetch1: 41000000: 0: 10110: <assembly>
42000000: system.cpu.writeback: Log4GUI: writeback: 42000000: 0: 10104: add x12, x1, x7
42000000: system.cpu.writeback: REGISTERS
42000000: global: x0=0x00000000
42000000: global: x1=0x0001119c
42000000: global: x2=0x000111dc
42000000: global: x3=0x00011221
42000000: global: x4=0xffffffab
42000000: global: x5=0x00000010
42000000: global: x6=0x00000001
42000000: global: x7=0x00000004
42000000: global: x8=0x0001121d
42000000: global: x9=0x7f800000
42000000: global: x10=0x00000000
42000000: global: x11=0x0001121c
42000000: global: x12=0x000111a0
42000000: global: x13=0x00000000
42000000: global: x14=0x00000000
42000000: global: x15=0x00000000
42000000: global: x16=0x00000000
42000000: global: x17=0x00000000
42000000: global: x18=0x00000000
42000000: global: x19=0x00000000
42000000: global: x20=0x00000000
42000000: global: x21=0x00000000
42000000: global: x22=0x00000000
42000000: global: x23=0x00000000
42000000: global: x24=0x00000000
42000000: global: x25=0x00000000
42000000: global: x26=0x00000000
42000000: global: x27=0x00000000
42000000: global: x28=0x00000000
42000000: global: x29=0x00000000
42000000: global: x30=0x00000000
42000000: global: x31=0x00000000
42000000: global: f0=0x00000000
42000000: global: f1=0x40933333
42000000: global: f2=0x4019999a
42000000: global: f3=0xc2aa0000
42000000: global: f4=0x00000000
42000000: global: f5=0x00000000
42000000: global: f6=0x00000000
42000000: global: f7=0x00000000
42000000: global: f8=0x00000000
42000000: global: f9=0x00000000
42000000: global: f10=0x00000000
42000000: global: f11=0x00000000
42000000: global: f12=0x00000000
42000000: global: f13=0x00000000
42000000: global: f14=0x00000000
42000000: global: f15=0x00000000
42000000: global: f16=0x00000000
42000000: global: f17=0x00000000
42000000: global: f18=0x00000000
42000000: global: f19=0x00000000
42000000: global: f20=0x00000000
42000000: global: f21=0x00000000
42000000: global: f22=0x00000000
42000000: global: f23=0x00000000
42000000: global: f24=0x00000000
42000000: global: f25=0x00000000
42000000: global: f26=0x00000000
42000000: global: f27=0x00000000
42000000: global: f28=0x00000000
42000000: global: f29=0x00000000
42000000: global: f30=0x00000000
42000000: global: f31=0x00000000
42000000: system.cpu.memory: Log4GUI: memory: 42000000: 0: 10108: flw f6, 0(x12)
42000000: system.cpu.execute: Log4GUI: execute: 42000000: 0: 1010c: add x12, x2, x7: 0
42000000: system.cpu.decode: Log4GUI: decode: 42000000: 0: 10110: flw f7, 0(x12)
42000000: system.cpu.fetch1: Log4GUI: fetch1: 42000000: 0: 10114: <assembly>
43000000: system.cpu.writeback: Log4GUI: writeback: 43000000: 0: 10108: flw f6, 0(x12)
43000000: system.cpu.writeback: REGISTERS
43000000: global: x0=0x00000000
43000000: global: x1=0x0001119c
43000000: global: x2=0x000111dc
43000000: global: x3=0x00011221
43000000: global: x4=0xffffffab
43000000: global: x5=0x00000010
43000000: global: x6=0x00000001
43000000: global: x7=0x00000004
43000000: global: x8=0x0001121d
43000000: global: x9=0x7f800000
43000000: global: x10=0x00000000
43000000: global: x11=0x0001121c
43000000: global: x12=0x000111a0
43000000: global: x13=0x00000000
43000000: global: x14=0x00000000
43000000: global: x15=0x00000000
43000000: global: x16=0x00000000
43000000: global: x17=0x00000000
43000000: global: x18=0x00000000
43000000: global: x19=0x00000000
43000000: global: x20=0x00000000
43000000: global: x21=0x00000000
43000000: global: x22=0x00000000
43000000: global: x23=0x00000000
43000000: global: x24=0x00000000
43000000: global: x25=0x00000000
43000000: global: x26=0x00000000
43000000: global: x27=0x00000000
43000000: global: x28=0x00000000
43000000: global: x29=0x00000000
43000000: global: x30=0x00000000
43000000: global: x31=0x00000000
43000000: global: f0=0x00000000
43000000: global: f1=0x40933333
43000000: global: f2=0x4019999a
43000000: global: f3=0xc2aa0000
43000000: global: f4=0x00000000
43000000: global: f5=0x00000000
43000000: global: f6=0x3f8ccccd
43000000: global: f7=0x00000000
43000000: global: f8=0x00000000
43000000: global: f9=0x00000000
43000000: global: f10=0x00000000
43000000: global: f11=0x00000000
43000000: global: f12=0x00000000
43000000: global: f13=0x00000000
43000000: global: f14=0x00000000
43000000: global: f15=0x00000000
43000000: global: f16=0x00000000
43000000: global: f17=0x00000000
43000000: global: f18=0x00000000
43000000: global: f19=0x00000000
43000000: global: f20=0x00000000
43000000: global: f21=0x00000000
43000000: global: f22=0x00000000
43000000: global: f23=0x00000000
43000000: global: f24=0x00000000
43000000: global: f25=0x00000000
43000000: global: f26=0x00000000
43000000: global: f27=0x00000000
43000000: global: f28=0x00000000
43000000: global: f29=0x00000000
43000000: global: f30=0x00000000
43000000: global: f31=0x00000000
43000000: system.cpu.memory: Log4GUI: memory: 43000000: 0: 1010c: add x12, x2, x7
43000000: system.cpu.execute: Log4GUI: execute: 43000000: 0: 10110: flw f7, 0(x12): 0
43000000: system.cpu.decode: Log4GUI: decode: 43000000: 0: 10114: addi x6, x6, 1
43000000: system.cpu.fetch1: Log4GUI: fetch1: 43000000: 0: 10118: <assembly>
44000000: system.cpu.writeback: Log4GUI: writeback: 44000000: 0: 1010c: add x12, x2, x7
44000000: system.cpu.writeback: REGISTERS
44000000: global: x0=0x00000000
44000000: global: x1=0x0001119c
44000000: global: x2=0x000111dc
44000000: global: x3=0x00011221
44000000: global: x4=0xffffffab
44000000: global: x5=0x00000010
[...]
232000000: system.cpu.fetch1: Log4GUI: fetch1: 232000000: 1: 10178: <assembly>
233000000: system.cpu.execute: Log4GUI: execute: 233000000: 0: 10170: fadd_s f4, f3, f4: 3
233000000: system.cpu.decode: Log4GUI: decode: 233000000: 1: 10174: fmv_x_w x10, f4
233000000: system.cpu.fetch1: Log4GUI: fetch1: 233000000: 1: 10178: <assembly>
234000000: system.cpu.memory: Log4GUI: memory: 234000000: 0: 10170: fadd_s f4, f3, f4
234000000: system.cpu.execute: Log4GUI: execute: 234000000: 0: 10174: fmv_x_w x10, f4: 3
234000000: system.cpu.decode: Log4GUI: decode: 234000000: 0: 10178: fsw f4, 0(x11)
234000000: system.cpu.fetch1: Log4GUI: fetch1: 234000000: 0: 1017c: <assembly>
235000000: system.cpu.writeback: Log4GUI: writeback: 235000000: 0: 10170: fadd_s f4, f3, f4
235000000: system.cpu.writeback: REGISTERS
235000000: global: x0=0x00000000
235000000: global: x1=0x0001119c
235000000: global: x2=0x000111dc
235000000: global: x3=0x00011221
235000000: global: x4=0xffffffab
235000000: global: x5=0x00000010
235000000: global: x6=0x00000010
235000000: global: x7=0x00000040
235000000: global: x8=0x0001121d
235000000: global: x9=0x7f800000
235000000: global: x10=0x00000000
235000000: global: x11=0x0001121c
235000000: global: x12=0x00011218
235000000: global: x13=0x00000000
235000000: global: x14=0x00000000
235000000: global: x15=0x00000000
235000000: global: x16=0x00000000
235000000: global: x17=0x00000000
235000000: global: x18=0x00000000
235000000: global: x19=0x00000000
235000000: global: x20=0x00000000
235000000: global: x21=0x00000000
235000000: global: x22=0x00000000
235000000: global: x23=0x00000000
235000000: global: x24=0x00000000
235000000: global: x25=0x00000000
235000000: global: x26=0x00000000
235000000: global: x27=0x00000000
235000000: global: x28=0x00000000
235000000: global: x29=0x00000000
235000000: global: x30=0x00000000
235000000: global: x31=0x00000000
235000000: global: f0=0x00000000
235000000: global: f1=0x4079999a
235000000: global: f2=0x4119999a
235000000: global: f3=0xc2aa0000
235000000: global: f4=0xc23e3d70
235000000: global: f5=0x43bdf47b
235000000: global: f6=0x4079999a
235000000: global: f7=0x40133333
235000000: global: f8=0x410f851f
235000000: global: f9=0x40b00000
235000000: global: f10=0x3fcccccd
235000000: global: f11=0x410ccccd
235000000: global: f12=0x4101999a
235000000: global: f13=0x3f800000
235000000: global: f14=0x4101999a
235000000: global: f15=0x00000000
235000000: global: f16=0x00000000
235000000: global: f17=0x00000000
235000000: global: f18=0x00000000
235000000: global: f19=0x00000000
235000000: global: f20=0x00000000
235000000: global: f21=0x00000000
235000000: global: f22=0x00000000
235000000: global: f23=0x00000000
235000000: global: f24=0x00000000
235000000: global: f25=0x00000000
235000000: global: f26=0x00000000
235000000: global: f27=0x00000000
235000000: global: f28=0x00000000
235000000: global: f29=0x00000000
235000000: global: f30=0x00000000
235000000: global: f31=0x00000000
235000000: system.cpu.execute: Log4GUI: execute: 235000000: 0: 10178: fsw f4, 0(x11): 0
235000000: system.cpu.execute: Log4GUI: execute: 235000000: 0: 10174: fmv_x_w x10, f4: 3
235000000: system.cpu.decode: Log4GUI: decode: 235000000: 0: 1017c: and x10, x10, x9
235000000: system.cpu.fetch1: Log4GUI: fetch1: 235000000: 0: 10180: <assembly>
236000000: system.cpu.memory: Log4GUI: memory: 236000000: 0: 10178: fsw f4, 0(x11)
236000000: system.cpu.execute: Log4GUI: execute: 236000000: 0: 10174: fmv_x_w x10, f4: 3
236000000: system.cpu.decode: Log4GUI: decode: 236000000: 1: 1017c: and x10, x10, x9
236000000: system.cpu.fetch1: Log4GUI: fetch1: 236000000: 1: 10180: <assembly>
237000000: system.cpu.writeback: Log4GUI: writeback: 237000000: 0: 10178: fsw f4, 0(x11)
237000000: system.cpu.writeback: REGISTERS
237000000: global: x0=0x00000000
237000000: global: x1=0x0001119c
237000000: global: x2=0x000111dc
237000000: global: x3=0x00011221
237000000: global: x4=0xffffffab
237000000: global: x5=0x00000010
237000000: global: x6=0x00000010
237000000: global: x7=0x00000040
237000000: global: x8=0x0001121d
237000000: global: x9=0x7f800000
237000000: global: x10=0x00000000
237000000: global: x11=0x0001121c
237000000: global: x12=0x00011218
237000000: global: x13=0x00000000
237000000: global: x14=0x00000000
237000000: global: x15=0x00000000
237000000: global: x16=0x00000000
237000000: global: x17=0x00000000
237000000: global: x18=0x00000000
237000000: global: x19=0x00000000
237000000: global: x20=0x00000000
237000000: global: x21=0x00000000
237000000: global: x22=0x00000000
237000000: global: x23=0x00000000
237000000: global: x24=0x00000000
237000000: global: x25=0x00000000
237000000: global: x26=0x00000000
237000000: global: x27=0x00000000
237000000: global: x28=0x00000000
237000000: global: x29=0x00000000
237000000: global: x30=0x00000000
237000000: global: x31=0x00000000
237000000: global: f0=0x00000000
237000000: global: f1=0x4079999a
237000000: global: f2=0x4119999a
237000000: global: f3=0xc2aa0000
237000000: global: f4=0xc23e3d70
237000000: global: f5=0x43bdf47b
237000000: global: f6=0x4079999a
237000000: global: f7=0x40133333
237000000: global: f8=0x410f851f
237000000: global: f9=0x40b00000
237000000: global: f10=0x3fcccccd
237000000: global: f11=0x410ccccd
237000000: global: f12=0x4101999a
237000000: global: f13=0x3f800000
237000000: global: f14=0x4101999a
237000000: global: f15=0x00000000
237000000: global: f16=0x00000000
237000000: global: f17=0x00000000
237000000: global: f18=0x00000000
237000000: global: f19=0x00000000
237000000: global: f20=0x00000000
237000000: global: f21=0x00000000
237000000: global: f22=0x00000000
237000000: global: f23=0x00000000
237000000: global: f24=0x00000000
237000000: global: f25=0x00000000
237000000: global: f26=0x00000000
237000000: global: f27=0x00000000
237000000: global: f28=0x00000000
237000000: global: f29=0x00000000
237000000: global: f30=0x00000000
237000000: global: f31=0x00000000
237000000: system.cpu.execute: Log4GUI: execute: 237000000: 0: 10174: fmv_x_w x10, f4: 3
237000000: system.cpu.decode: Log4GUI: decode: 237000000: 1: 1017c: and x10, x10, x9
237000000: system.cpu.fetch1: Log4GUI: fetch1: 237000000: 1: 10180: <assembly>
238000000: system.cpu.memory: Log4GUI: memory: 238000000: 0: 10174: fmv_x_w x10, f4
238000000: system.cpu.execute: Log4GUI: execute: 238000000: 0: 1017c: and x10, x10, x9: 0
238000000: system.cpu.decode: Log4GUI: decode: 238000000: 0: 10180: beq x10, x9, 8
238000000: system.cpu.fetch1: Log4GUI: fetch1: 238000000: 0: 10184: <assembly>
239000000: system.cpu.writeback: Log4GUI: writeback: 239000000: 0: 10174: fmv_x_w x10, f4
239000000: system.cpu.writeback: REGISTERS
239000000: global: x0=0x00000000
239000000: global: x1=0x0001119c
239000000: global: x2=0x000111dc
239000000: global: x3=0x00011221
239000000: global: x4=0xffffffab
239000000: global: x5=0x00000010
239000000: global: x6=0x00000010
239000000: global: x7=0x00000040
239000000: global: x8=0x0001121d
239000000: global: x9=0x7f800000
239000000: global: x10=0xc23e3d70
239000000: global: x11=0x0001121c
239000000: global: x12=0x00011218
239000000: global: x13=0x00000000
239000000: global: x14=0x00000000
239000000: global: x15=0x00000000
239000000: global: x16=0x00000000
239000000: global: x17=0x00000000
239000000: global: x18=0x00000000
239000000: global: x19=0x00000000
239000000: global: x20=0x00000000
239000000: global: x21=0x00000000
239000000: global: x22=0x00000000
239000000: global: x23=0x00000000
239000000: global: x24=0x00000000
239000000: global: x25=0x00000000
239000000: global: x26=0x00000000
239000000: global: x27=0x00000000
239000000: global: x28=0x00000000
239000000: global: x29=0x00000000
239000000: global: x30=0x00000000
239000000: global: x31=0x00000000
239000000: global: f0=0x00000000
239000000: global: f1=0x4079999a
239000000: global: f2=0x4119999a
239000000: global: f3=0xc2aa0000
239000000: global: f4=0xc23e3d70
239000000: global: f5=0x43bdf47b
239000000: global: f6=0x4079999a
239000000: global: f7=0x40133333
239000000: global: f8=0x410f851f
239000000: global: f9=0x40b00000
239000000: global: f10=0x3fcccccd
239000000: global: f11=0x410ccccd
239000000: global: f12=0x4101999a
239000000: global: f13=0x3f800000
239000000: global: f14=0x4101999a
239000000: global: f15=0x00000000
239000000: global: f16=0x00000000
239000000: global: f17=0x00000000
239000000: global: f18=0x00000000
239000000: global: f19=0x00000000
239000000: global: f20=0x00000000
239000000: global: f21=0x00000000
239000000: global: f22=0x00000000
239000000: global: f23=0x00000000
239000000: global: f24=0x00000000
239000000: global: f25=0x00000000
239000000: global: f26=0x00000000
239000000: global: f27=0x00000000
239000000: global: f28=0x00000000
239000000: global: f29=0x00000000
239000000: global: f30=0x00000000
239000000: global: f31=0x00000000
239000000: system.cpu.memory: Log4GUI: memory: 239000000: 0: 1017c: and x10, x10, x9
239000000: system.cpu.decode: Log4GUI: decode: 239000000: 1: 10180: beq x10, x9, 8
239000000: system.cpu.fetch1: Log4GUI: fetch1: 239000000: 1: 10184: <assembly>
240000000: system.cpu.writeback: Log4GUI: writeback: 240000000: 0: 1017c: and x10, x10, x9
240000000: system.cpu.writeback: REGISTERS
240000000: global: x0=0x00000000
240000000: global: x1=0x0001119c
240000000: global: x2=0x000111dc
240000000: global: x3=0x00011221
240000000: global: x4=0xffffffab
240000000: global: x5=0x00000010
240000000: global: x6=0x00000010
240000000: global: x7=0x00000040
240000000: global: x8=0x0001121d
240000000: global: x9=0x7f800000
240000000: global: x10=0x42000000
240000000: global: x11=0x0001121c
240000000: global: x12=0x00011218
240000000: global: x13=0x00000000
240000000: global: x14=0x00000000
240000000: global: x15=0x00000000
240000000: global: x16=0x00000000
240000000: global: x17=0x00000000
240000000: global: x18=0x00000000
240000000: global: x19=0x00000000
240000000: global: x20=0x00000000
240000000: global: x21=0x00000000
240000000: global: x22=0x00000000
240000000: global: x23=0x00000000
240000000: global: x24=0x00000000
240000000: global: x25=0x00000000
240000000: global: x26=0x00000000
240000000: global: x27=0x00000000
240000000: global: x28=0x00000000
240000000: global: x29=0x00000000
240000000: global: x30=0x00000000
240000000: global: x31=0x00000000
240000000: global: f0=0x00000000
240000000: global: f1=0x4079999a
240000000: global: f2=0x4119999a
240000000: global: f3=0xc2aa0000
240000000: global: f4=0xc23e3d70
240000000: global: f5=0x43bdf47b
240000000: global: f6=0x4079999a
240000000: global: f7=0x40133333
240000000: global: f8=0x410f851f
240000000: global: f9=0x40b00000
240000000: global: f10=0x3fcccccd
240000000: global: f11=0x410ccccd
240000000: global: f12=0x4101999a
240000000: global: f13=0x3f800000
240000000: global: f14=0x4101999a
240000000: global: f15=0x00000000
240000000: global: f16=0x00000000
240000000: global: f17=0x00000000
240000000: global: f18=0x00000000
240000000: global: f19=0x00000000
240000000: global: f20=0x00000000
240000000: global: f21=0x00000000
240000000: global: f22=0x00000000
240000000: global: f23=0x00000000
240000000: global: f24=0x00000000
240000000: global: f25=0x00000000
240000000: global: f26=0x00000000
240000000: global: f27=0x00000000
240000000: global: f28=0x00000000
240000000: global: f29=0x00000000
240000000: global: f30=0x00000000
240000000: global: f31=0x00000000
240000000: system.cpu.execute: Log4GUI: execute: 240000000: 0: 10180: beq x10, x9, 8: 0
240000000: system.cpu.decode: Log4GUI: decode: 240000000: 0: 10184: jal x0, 12
240000000: system.cpu.fetch1: Log4GUI: fetch1: 240000000: 0: 10188: <assembly>
241000000: system.cpu.memory: Log4GUI: memory: 241000000: 0: 10180: beq x10, x9, 8
241000000: system.cpu.execute: Log4GUI: execute: 241000000: 0: 10184: jal x0, 12: 0
241000000: system.cpu.fetch1: Log4GUI: fetch1: 241000000: 0: 10190: <assembly>
242000000: system.cpu.writeback: Log4GUI: writeback: 242000000: 0: 10180: beq x10, x9, 8
242000000: system.cpu.writeback: REGISTERS
242000000: global: x0=0x00000000
242000000: global: x1=0x0001119c
242000000: global: x2=0x000111dc
242000000: global: x3=0x00011221
242000000: global: x4=0xffffffab
242000000: global: x5=0x00000010
242000000: global: x6=0x00000010
242000000: global: x7=0x00000040
242000000: global: x8=0x0001121d
242000000: global: x9=0x7f800000
242000000: global: x10=0x42000000
242000000: global: x11=0x0001121c
242000000: global: x12=0x00011218
242000000: global: x13=0x00000000
242000000: global: x14=0x00000000
242000000: global: x15=0x00000000
242000000: global: x16=0x00000000
242000000: global: x17=0x00000000
242000000: global: x18=0x00000000
242000000: global: x19=0x00000000
242000000: global: x20=0x00000000
242000000: global: x21=0x00000000
242000000: global: x22=0x00000000
242000000: global: x23=0x00000000
242000000: global: x24=0x00000000
242000000: global: x25=0x00000000
242000000: global: x26=0x00000000
242000000: global: x27=0x00000000
242000000: global: x28=0x00000000
242000000: global: x29=0x00000000
242000000: global: x30=0x00000000
242000000: global: x31=0x00000000
242000000: global: f0=0x00000000
242000000: global: f1=0x4079999a
242000000: global: f2=0x4119999a
242000000: global: f3=0xc2aa0000
242000000: global: f4=0xc23e3d70
242000000: global: f5=0x43bdf47b
242000000: global: f6=0x4079999a
242000000: global: f7=0x40133333
242000000: global: f8=0x410f851f
242000000: global: f9=0x40b00000
242000000: global: f10=0x3fcccccd
242000000: global: f11=0x410ccccd
242000000: global: f12=0x4101999a
242000000: global: f13=0x3f800000
242000000: global: f14=0x4101999a
242000000: global: f15=0x00000000
242000000: global: f16=0x00000000
242000000: global: f17=0x00000000
242000000: global: f18=0x00000000
242000000: global: f19=0x00000000
242000000: global: f20=0x00000000
242000000: global: f21=0x00000000
242000000: global: f22=0x00000000
242000000: global: f23=0x00000000
242000000: global: f24=0x00000000
242000000: global: f25=0x00000000
242000000: global: f26=0x00000000
242000000: global: f27=0x00000000
242000000: global: f28=0x00000000
242000000: global: f29=0x00000000
242000000: global: f30=0x00000000
242000000: global: f31=0x00000000
242000000: system.cpu.memory: Log4GUI: memory: 242000000: 0: 10184: jal x0, 12
242000000: system.cpu.decode: Log4GUI: decode: 242000000: 0: 10190: addi x10, x0, 0
242000000: system.cpu.fetch1: Log4GUI: fetch1: 242000000: 0: 10194: <assembly>
243000000: system.cpu.writeback: Log4GUI: writeback: 243000000: 0: 10184: jal x0, 12
243000000: system.cpu.writeback: REGISTERS
243000000: global: x0=0x00000000
243000000: global: x1=0x0001119c
243000000: global: x2=0x000111dc
243000000: global: x3=0x00011221
243000000: global: x4=0xffffffab
243000000: global: x5=0x00000010
243000000: global: x6=0x00000010
243000000: global: x7=0x00000040
243000000: global: x8=0x0001121d
243000000: global: x9=0x7f800000
243000000: global: x10=0x42000000
243000000: global: x11=0x0001121c
243000000: global: x12=0x00011218
243000000: global: x13=0x00000000
243000000: global: x14=0x00000000
243000000: global: x15=0x00000000
243000000: global: x16=0x00000000
243000000: global: x17=0x00000000
243000000: global: x18=0x00000000
243000000: global: x19=0x00000000
243000000: global: x20=0x00000000
243000000: global: x21=0x00000000
243000000: global: x22=0x00000000
243000000: global: x23=0x00000000
243000000: global: x24=0x00000000
243000000: global: x25=0x00000000
243000000: global: x26=0x00000000
243000000: global: x27=0x00000000
243000000: global: x28=0x00000000
243000000: global: x29=0x00000000
243000000: global: x30=0x00000000
243000000: global: x31=0x00000000
243000000: global: f0=0x00000000
243000000: global: f1=0x4079999a
243000000: global: f2=0x4119999a
243000000: global: f3=0xc2aa0000
243000000: global: f4=0xc23e3d70
243000000: global: f5=0x43bdf47b
243000000: global: f6=0x4079999a
243000000: global: f7=0x40133333
243000000: global: f8=0x410f851f
243000000: global: f9=0x40b00000
243000000: global: f10=0x3fcccccd
243000000: global: f11=0x410ccccd
243000000: global: f12=0x4101999a
243000000: global: f13=0x3f800000
243000000: global: f14=0x4101999a
243000000: global: f15=0x00000000
243000000: global: f16=0x00000000
243000000: global: f17=0x00000000
243000000: global: f18=0x00000000
243000000: global: f19=0x00000000
243000000: global: f20=0x00000000
243000000: global: f21=0x00000000
243000000: global: f22=0x00000000
243000000: global: f23=0x00000000
243000000: global: f24=0x00000000
243000000: global: f25=0x00000000
243000000: global: f26=0x00000000
243000000: global: f27=0x00000000
243000000: global: f28=0x00000000
243000000: global: f29=0x00000000
243000000: global: f30=0x00000000
243000000: global: f31=0x00000000
243000000: system.cpu.execute: Log4GUI: execute: 243000000: 0: 10190: addi x10, x0, 0: 0
243000000: system.cpu.decode: Log4GUI: decode: 243000000: 0: 10194: addi x17, x0, 93
243000000: system.cpu.fetch1: Log4GUI: fetch1: 243000000: 0: 10198: <assembly>
244000000: system.cpu.memory: Log4GUI: memory: 244000000: 0: 10190: addi x10, x0, 0
244000000: system.cpu.execute: Log4GUI: execute: 244000000: 0: 10194: addi x17, x0, 93: 0
244000000: system.cpu.decode: Log4GUI: decode: 244000000: 0: 10198: ecall
244000000: system.cpu.fetch1: Log4GUI: fetch1: 244000000: 0: 1019c: <assembly>
245000000: system.cpu.writeback: Log4GUI: writeback: 245000000: 0: 10190: addi x10, x0, 0
245000000: system.cpu.writeback: REGISTERS
245000000: global: x0=0x00000000
245000000: global: x1=0x0001119c
245000000: global: x2=0x000111dc
245000000: global: x3=0x00011221
245000000: global: x4=0xffffffab
245000000: global: x5=0x00000010
245000000: global: x6=0x00000010
245000000: global: x7=0x00000040
245000000: global: x8=0x0001121d
245000000: global: x9=0x7f800000
245000000: global: x10=0x00000000
245000000: global: x11=0x0001121c
245000000: global: x12=0x00011218
245000000: global: x13=0x00000000
245000000: global: x14=0x00000000
245000000: global: x15=0x00000000
245000000: global: x16=0x00000000
245000000: global: x17=0x00000000
245000000: global: x18=0x00000000
245000000: global: x19=0x00000000
245000000: global: x20=0x00000000
245000000: global: x21=0x00000000
245000000: global: x22=0x00000000
245000000: global: x23=0x00000000
245000000: global: x24=0x00000000
245000000: global: x25=0x00000000
245000000: global: x26=0x00000000
245000000: global: x27=0x00000000
245000000: global: x28=0x00000000
245000000: global: x29=0x00000000
245000000: global: x30=0x00000000
245000000: global: x31=0x00000000
245000000: global: f0=0x00000000
245000000: global: f1=0x4079999a
245000000: global: f2=0x4119999a
245000000: global: f3=0xc2aa0000
245000000: global: f4=0xc23e3d70
245000000: global: f5=0x43bdf47b
245000000: global: f6=0x4079999a
245000000: global: f7=0x40133333
245000000: global: f8=0x410f851f
245000000: global: f9=0x40b00000
245000000: global: f10=0x3fcccccd
245000000: global: f11=0x410ccccd
245000000: global: f12=0x4101999a
245000000: global: f13=0x3f800000
245000000: global: f14=0x4101999a
245000000: global: f15=0x00000000
245000000: global: f16=0x00000000
245000000: global: f17=0x00000000
245000000: global: f18=0x00000000
245000000: global: f19=0x00000000
245000000: global: f20=0x00000000
245000000: global: f21=0x00000000
245000000: global: f22=0x00000000
245000000: global: f23=0x00000000
245000000: global: f24=0x00000000
245000000: global: f25=0x00000000
245000000: global: f26=0x00000000
245000000: global: f27=0x00000000
245000000: global: f28=0x00000000
245000000: global: f29=0x00000000
245000000: global: f30=0x00000000
245000000: global: f31=0x00000000
245000000: system.cpu.memory: Log4GUI: memory: 245000000: 0: 10194: addi x17, x0, 93
245000000: system.cpu.execute: Log4GUI: execute: 245000000: 0: 10198: ecall: -1
245000000: system.cpu.decode: Log4GUI: decode: 245000000: 0: 1019c: c_addi4spn x8, x2, 0
245000000: system.cpu.fetch1: Log4GUI: fetch1: 245000000: 0: 1019e: <assembly>
Exiting @ tick 245000000 because exiting with last active thread context
