Global frequency set at 1000000000000 ticks per second
gem5 Simulator System.  https://www.gem5.org
gem5 is copyrighted software; use the --copyright option for details.

gem5 version 22.1.0.0
gem5 compiled Aug 27 2025 16:10:28
gem5 started Oct 31 2025 18:57:40
gem5 executing on vboxuser-VirtualBox, pid 40233
command line: /home/vboxuser/gem5/build/RISCV/gem5.opt --debug-flags=MinorGUI gem5_config.py --cpu-type MinorCPU --caches --l1d_size 8388608 --l1i_size 8388608 --cacheline_size 512 --cpu-clock 1MHz --sys-clock 10GHz -c program_1_b_8

**** REAL SIMULATION ****
1000000: system.cpu.fetch1: Log4GUI: fetch1: 1000000: 0: 10094: <assembly>
2000000: system.cpu.fetch1: Log4GUI: fetch1: 2000000: 1: 10094: <assembly>
3000000: system.cpu.fetch1: Log4GUI: fetch1: 3000000: 1: 10094: <assembly>
4000000: system.cpu.fetch1: Log4GUI: fetch1: 4000000: 1: 10094: <assembly>
5000000: system.cpu.decode: Log4GUI: decode: 5000000: 0: 10094: auipc x1, 1
5000000: system.cpu.fetch1: Log4GUI: fetch1: 5000000: 0: 10098: <assembly>
6000000: system.cpu.execute: Log4GUI: execute: 6000000: 0: 10094: auipc x1, 1: 0
6000000: system.cpu.decode: Log4GUI: decode: 6000000: 0: 10098: addi x1, x1, 392
6000000: system.cpu.fetch1: Log4GUI: fetch1: 6000000: 0: 1009c: <assembly>
7000000: system.cpu.memory: Log4GUI: memory: 7000000: 0: 10094: auipc x1, 1
7000000: system.cpu.execute: Log4GUI: execute: 7000000: 0: 10098: addi x1, x1, 392: 0
7000000: system.cpu.decode: Log4GUI: decode: 7000000: 0: 1009c: flw f1, 0(x1)
7000000: system.cpu.fetch1: Log4GUI: fetch1: 7000000: 0: 100a0: <assembly>
8000000: system.cpu.writeback: Log4GUI: writeback: 8000000: 0: 10094: auipc x1, 1
8000000: system.cpu.writeback: REGISTERS
8000000: global: x0=0x00000000
8000000: global: x1=0x00011094
8000000: global: x2=0x7fffff90
8000000: global: x3=0x00000000
8000000: global: x4=0x00000000
8000000: global: x5=0x00000000
8000000: global: x6=0x00000000
8000000: global: x7=0x00000000
8000000: global: x8=0x00000000
8000000: global: x9=0x00000000
8000000: global: x10=0x00000000
8000000: global: x11=0x00000000
8000000: global: x12=0x00000000
8000000: global: x13=0x00000000
8000000: global: x14=0x00000000
8000000: global: x15=0x00000000
8000000: global: x16=0x00000000
8000000: global: x17=0x00000000
8000000: global: x18=0x00000000
8000000: global: x19=0x00000000
8000000: global: x20=0x00000000
8000000: global: x21=0x00000000
8000000: global: x22=0x00000000
8000000: global: x23=0x00000000
8000000: global: x24=0x00000000
8000000: global: x25=0x00000000
8000000: global: x26=0x00000000
8000000: global: x27=0x00000000
8000000: global: x28=0x00000000
8000000: global: x29=0x00000000
8000000: global: x30=0x00000000
8000000: global: x31=0x00000000
8000000: global: f0=0x00000000
8000000: global: f1=0x00000000
8000000: global: f2=0x00000000
8000000: global: f3=0x00000000
8000000: global: f4=0x00000000
8000000: global: f5=0x00000000
8000000: global: f6=0x00000000
8000000: global: f7=0x00000000
8000000: global: f8=0x00000000
8000000: global: f9=0x00000000
8000000: global: f10=0x00000000
8000000: global: f11=0x00000000
8000000: global: f12=0x00000000
8000000: global: f13=0x00000000
8000000: global: f14=0x00000000
8000000: global: f15=0x00000000
8000000: global: f16=0x00000000
8000000: global: f17=0x00000000
8000000: global: f18=0x00000000
8000000: global: f19=0x00000000
8000000: global: f20=0x00000000
8000000: global: f21=0x00000000
8000000: global: f22=0x00000000
8000000: global: f23=0x00000000
8000000: global: f24=0x00000000
8000000: global: f25=0x00000000
8000000: global: f26=0x00000000
8000000: global: f27=0x00000000
8000000: global: f28=0x00000000
8000000: global: f29=0x00000000
8000000: global: f30=0x00000000
8000000: global: f31=0x00000000
8000000: system.cpu.memory: Log4GUI: memory: 8000000: 0: 10098: addi x1, x1, 392
8000000: system.cpu.execute: Log4GUI: execute: 8000000: 0: 1009c: flw f1, 0(x1): 0
8000000: system.cpu.decode: Log4GUI: decode: 8000000: 0: 100a0: auipc x2, 1
8000000: system.cpu.fetch1: Log4GUI: fetch1: 8000000: 0: 100a4: <assembly>
9000000: system.cpu.writeback: Log4GUI: writeback: 9000000: 0: 10098: addi x1, x1, 392
9000000: system.cpu.writeback: REGISTERS
9000000: global: x0=0x00000000
9000000: global: x1=0x0001121c
9000000: global: x2=0x7fffff90
9000000: global: x3=0x00000000
9000000: global: x4=0x00000000
9000000: global: x5=0x00000000
9000000: global: x6=0x00000000
9000000: global: x7=0x00000000
9000000: global: x8=0x00000000
9000000: global: x9=0x00000000
9000000: global: x10=0x00000000
9000000: global: x11=0x00000000
9000000: global: x12=0x00000000
9000000: global: x13=0x00000000
9000000: global: x14=0x00000000
9000000: global: x15=0x00000000
9000000: global: x16=0x00000000
9000000: global: x17=0x00000000
9000000: global: x18=0x00000000
9000000: global: x19=0x00000000
9000000: global: x20=0x00000000
9000000: global: x21=0x00000000
9000000: global: x22=0x00000000
9000000: global: x23=0x00000000
9000000: global: x24=0x00000000
9000000: global: x25=0x00000000
9000000: global: x26=0x00000000
9000000: global: x27=0x00000000
9000000: global: x28=0x00000000
9000000: global: x29=0x00000000
9000000: global: x30=0x00000000
9000000: global: x31=0x00000000
9000000: global: f0=0x00000000
9000000: global: f1=0x00000000
9000000: global: f2=0x00000000
9000000: global: f3=0x00000000
9000000: global: f4=0x00000000
9000000: global: f5=0x00000000
9000000: global: f6=0x00000000
9000000: global: f7=0x00000000
9000000: global: f8=0x00000000
9000000: global: f9=0x00000000
9000000: global: f10=0x00000000
9000000: global: f11=0x00000000
9000000: global: f12=0x00000000
9000000: global: f13=0x00000000
9000000: global: f14=0x00000000
9000000: global: f15=0x00000000
9000000: global: f16=0x00000000
9000000: global: f17=0x00000000
9000000: global: f18=0x00000000
9000000: global: f19=0x00000000
9000000: global: f20=0x00000000
9000000: global: f21=0x00000000
9000000: global: f22=0x00000000
9000000: global: f23=0x00000000
9000000: global: f24=0x00000000
9000000: global: f25=0x00000000
9000000: global: f26=0x00000000
9000000: global: f27=0x00000000
9000000: global: f28=0x00000000
9000000: global: f29=0x00000000
9000000: global: f30=0x00000000
9000000: global: f31=0x00000000
9000000: system.cpu.memory: Log4GUI: memory: 9000000: 0: 1009c: flw f1, 0(x1)
9000000: system.cpu.execute: Log4GUI: execute: 9000000: 0: 100a0: auipc x2, 1: 0
9000000: system.cpu.decode: Log4GUI: decode: 9000000: 0: 100a4: addi x2, x2, 444
9000000: system.cpu.fetch1: Log4GUI: fetch1: 9000000: 0: 100a8: <assembly>
10000000: system.cpu.memory: Log4GUI: memory: 10000000: 1: 1009c: flw f1, 0(x1)
10000000: system.cpu.execute: Log4GUI: execute: 10000000: 1: 100a0: auipc x2, 1: 0
10000000: system.cpu.decode: Log4GUI: decode: 10000000: 1: 100a4: addi x2, x2, 444
10000000: system.cpu.fetch1: Log4GUI: fetch1: 10000000: 1: 100a8: <assembly>
11000000: system.cpu.decode: Log4GUI: decode: 11000000: 1: 100a4: addi x2, x2, 444
11000000: system.cpu.fetch1: Log4GUI: fetch1: 11000000: 1: 100a8: <assembly>
12000000: system.cpu.writeback: Log4GUI: writeback: 12000000: 0: 1009c: flw f1, 0(x1)
12000000: system.cpu.writeback: REGISTERS
12000000: global: x0=0x00000000
12000000: global: x1=0x0001121c
12000000: global: x2=0x7fffff90
12000000: global: x3=0x00000000
12000000: global: x4=0x00000000
12000000: global: x5=0x00000000
12000000: global: x6=0x00000000
12000000: global: x7=0x00000000
12000000: global: x8=0x00000000
12000000: global: x9=0x00000000
12000000: global: x10=0x00000000
12000000: global: x11=0x00000000
12000000: global: x12=0x00000000
12000000: global: x13=0x00000000
12000000: global: x14=0x00000000
12000000: global: x15=0x00000000
12000000: global: x16=0x00000000
12000000: global: x17=0x00000000
12000000: global: x18=0x00000000
12000000: global: x19=0x00000000
12000000: global: x20=0x00000000
12000000: global: x21=0x00000000
12000000: global: x22=0x00000000
12000000: global: x23=0x00000000
12000000: global: x24=0x00000000
12000000: global: x25=0x00000000
12000000: global: x26=0x00000000
12000000: global: x27=0x00000000
12000000: global: x28=0x00000000
12000000: global: x29=0x00000000
12000000: global: x30=0x00000000
12000000: global: x31=0x00000000
12000000: global: f0=0x00000000
12000000: global: f1=0x40933333
12000000: global: f2=0x00000000
12000000: global: f3=0x00000000
12000000: global: f4=0x00000000
12000000: global: f5=0x00000000
12000000: global: f6=0x00000000
12000000: global: f7=0x00000000
12000000: global: f8=0x00000000
12000000: global: f9=0x00000000
12000000: global: f10=0x00000000
12000000: global: f11=0x00000000
12000000: global: f12=0x00000000
12000000: global: f13=0x00000000
12000000: global: f14=0x00000000
12000000: global: f15=0x00000000
12000000: global: f16=0x00000000
12000000: global: f17=0x00000000
12000000: global: f18=0x00000000
12000000: global: f19=0x00000000
12000000: global: f20=0x00000000
12000000: global: f21=0x00000000
12000000: global: f22=0x00000000
12000000: global: f23=0x00000000
12000000: global: f24=0x00000000
12000000: global: f25=0x00000000
12000000: global: f26=0x00000000
12000000: global: f27=0x00000000
12000000: global: f28=0x00000000
12000000: global: f29=0x00000000
12000000: global: f30=0x00000000
12000000: global: f31=0x00000000
12000000: system.cpu.memory: Log4GUI: memory: 12000000: 0: 100a0: auipc x2, 1
12000000: system.cpu.execute: Log4GUI: execute: 12000000: 0: 100a4: addi x2, x2, 444: 0
12000000: system.cpu.decode: Log4GUI: decode: 12000000: 0: 100a8: flw f1, 0(x2)
12000000: system.cpu.fetch1: Log4GUI: fetch1: 12000000: 0: 100ac: <assembly>
13000000: system.cpu.writeback: Log4GUI: writeback: 13000000: 0: 100a0: auipc x2, 1
13000000: system.cpu.writeback: REGISTERS
13000000: global: x0=0x00000000
13000000: global: x1=0x0001121c
13000000: global: x2=0x000110a0
13000000: global: x3=0x00000000
13000000: global: x4=0x00000000
13000000: global: x5=0x00000000
13000000: global: x6=0x00000000
13000000: global: x7=0x00000000
13000000: global: x8=0x00000000
13000000: global: x9=0x00000000
13000000: global: x10=0x00000000
13000000: global: x11=0x00000000
13000000: global: x12=0x00000000
13000000: global: x13=0x00000000
13000000: global: x14=0x00000000
13000000: global: x15=0x00000000
13000000: global: x16=0x00000000
13000000: global: x17=0x00000000
13000000: global: x18=0x00000000
13000000: global: x19=0x00000000
13000000: global: x20=0x00000000
13000000: global: x21=0x00000000
13000000: global: x22=0x00000000
13000000: global: x23=0x00000000
13000000: global: x24=0x00000000
13000000: global: x25=0x00000000
13000000: global: x26=0x00000000
13000000: global: x27=0x00000000
13000000: global: x28=0x00000000
13000000: global: x29=0x00000000
13000000: global: x30=0x00000000
13000000: global: x31=0x00000000
13000000: global: f0=0x00000000
13000000: global: f1=0x40933333
13000000: global: f2=0x00000000
13000000: global: f3=0x00000000
13000000: global: f4=0x00000000
13000000: global: f5=0x00000000
13000000: global: f6=0x00000000
13000000: global: f7=0x00000000
13000000: global: f8=0x00000000
13000000: global: f9=0x00000000
13000000: global: f10=0x00000000
13000000: global: f11=0x00000000
13000000: global: f12=0x00000000
13000000: global: f13=0x00000000
13000000: global: f14=0x00000000
13000000: global: f15=0x00000000
13000000: global: f16=0x00000000
13000000: global: f17=0x00000000
13000000: global: f18=0x00000000
13000000: global: f19=0x00000000
13000000: global: f20=0x00000000
13000000: global: f21=0x00000000
13000000: global: f22=0x00000000
13000000: global: f23=0x00000000
13000000: global: f24=0x00000000
13000000: global: f25=0x00000000
13000000: global: f26=0x00000000
13000000: global: f27=0x00000000
13000000: global: f28=0x00000000
13000000: global: f29=0x00000000
13000000: global: f30=0x00000000
13000000: global: f31=0x00000000
13000000: system.cpu.memory: Log4GUI: memory: 13000000: 0: 100a4: addi x2, x2, 444
13000000: system.cpu.execute: Log4GUI: execute: 13000000: 0: 100a8: flw f1, 0(x2): 0
13000000: system.cpu.decode: Log4GUI: decode: 13000000: 0: 100ac: auipc x3, 1
13000000: system.cpu.fetch1: Log4GUI: fetch1: 13000000: 0: 100b0: <assembly>
14000000: system.cpu.writeback: Log4GUI: writeback: 14000000: 0: 100a4: addi x2, x2, 444
14000000: system.cpu.writeback: REGISTERS
14000000: global: x0=0x00000000
14000000: global: x1=0x0001121c
14000000: global: x2=0x0001125c
14000000: global: x3=0x00000000
14000000: global: x4=0x00000000
14000000: global: x5=0x00000000
14000000: global: x6=0x00000000
14000000: global: x7=0x00000000
14000000: global: x8=0x00000000
14000000: global: x9=0x00000000
14000000: global: x10=0x00000000
14000000: global: x11=0x00000000
14000000: global: x12=0x00000000
14000000: global: x13=0x00000000
14000000: global: x14=0x00000000
14000000: global: x15=0x00000000
14000000: global: x16=0x00000000
14000000: global: x17=0x00000000
14000000: global: x18=0x00000000
14000000: global: x19=0x00000000
14000000: global: x20=0x00000000
14000000: global: x21=0x00000000
14000000: global: x22=0x00000000
14000000: global: x23=0x00000000
14000000: global: x24=0x00000000
14000000: global: x25=0x00000000
14000000: global: x26=0x00000000
14000000: global: x27=0x00000000
14000000: global: x28=0x00000000
14000000: global: x29=0x00000000
14000000: global: x30=0x00000000
14000000: global: x31=0x00000000
14000000: global: f0=0x00000000
14000000: global: f1=0x40933333
14000000: global: f2=0x00000000
14000000: global: f3=0x00000000
14000000: global: f4=0x00000000
14000000: global: f5=0x00000000
14000000: global: f6=0x00000000
14000000: global: f7=0x00000000
14000000: global: f8=0x00000000
14000000: global: f9=0x00000000
14000000: global: f10=0x00000000
14000000: global: f11=0x00000000
14000000: global: f12=0x00000000
14000000: global: f13=0x00000000
14000000: global: f14=0x00000000
14000000: global: f15=0x00000000
14000000: global: f16=0x00000000
14000000: global: f17=0x00000000
14000000: global: f18=0x00000000
14000000: global: f19=0x00000000
14000000: global: f20=0x00000000
14000000: global: f21=0x00000000
14000000: global: f22=0x00000000
14000000: global: f23=0x00000000
14000000: global: f24=0x00000000
14000000: global: f25=0x00000000
14000000: global: f26=0x00000000
14000000: global: f27=0x00000000
14000000: global: f28=0x00000000
14000000: global: f29=0x00000000
14000000: global: f30=0x00000000
14000000: global: f31=0x00000000
14000000: system.cpu.memory: Log4GUI: memory: 14000000: 0: 100a8: flw f1, 0(x2)
14000000: system.cpu.execute: Log4GUI: execute: 14000000: 0: 100ac: auipc x3, 1: 0
14000000: system.cpu.decode: Log4GUI: decode: 14000000: 0: 100b0: addi x3, x3, 496
14000000: system.cpu.fetch1: Log4GUI: fetch1: 14000000: 0: 100b4: <assembly>
15000000: system.cpu.writeback: Log4GUI: writeback: 15000000: 0: 100a8: flw f1, 0(x2)
15000000: system.cpu.writeback: REGISTERS
15000000: global: x0=0x00000000
15000000: global: x1=0x0001121c
15000000: global: x2=0x0001125c
15000000: global: x3=0x00000000
15000000: global: x4=0x00000000
15000000: global: x5=0x00000000
15000000: global: x6=0x00000000
15000000: global: x7=0x00000000
15000000: global: x8=0x00000000
15000000: global: x9=0x00000000
15000000: global: x10=0x00000000
15000000: global: x11=0x00000000
15000000: global: x12=0x00000000
15000000: global: x13=0x00000000
15000000: global: x14=0x00000000
15000000: global: x15=0x00000000
15000000: global: x16=0x00000000
15000000: global: x17=0x00000000
15000000: global: x18=0x00000000
15000000: global: x19=0x00000000
15000000: global: x20=0x00000000
15000000: global: x21=0x00000000
15000000: global: x22=0x00000000
15000000: global: x23=0x00000000
15000000: global: x24=0x00000000
15000000: global: x25=0x00000000
15000000: global: x26=0x00000000
15000000: global: x27=0x00000000
15000000: global: x28=0x00000000
15000000: global: x29=0x00000000
15000000: global: x30=0x00000000
15000000: global: x31=0x00000000
15000000: global: f0=0x00000000
15000000: global: f1=0x4019999a
15000000: global: f2=0x00000000
15000000: global: f3=0x00000000
15000000: global: f4=0x00000000
15000000: global: f5=0x00000000
15000000: global: f6=0x00000000
15000000: global: f7=0x00000000
15000000: global: f8=0x00000000
15000000: global: f9=0x00000000
15000000: global: f10=0x00000000
15000000: global: f11=0x00000000
15000000: global: f12=0x00000000
15000000: global: f13=0x00000000
15000000: global: f14=0x00000000
15000000: global: f15=0x00000000
15000000: global: f16=0x00000000
15000000: global: f17=0x00000000
15000000: global: f18=0x00000000
15000000: global: f19=0x00000000
15000000: global: f20=0x00000000
15000000: global: f21=0x00000000
15000000: global: f22=0x00000000
15000000: global: f23=0x00000000
15000000: global: f24=0x00000000
15000000: global: f25=0x00000000
15000000: global: f26=0x00000000
15000000: global: f27=0x00000000
15000000: global: f28=0x00000000
15000000: global: f29=0x00000000
15000000: global: f30=0x00000000
15000000: global: f31=0x00000000
15000000: system.cpu.memory: Log4GUI: memory: 15000000: 0: 100ac: auipc x3, 1
15000000: system.cpu.execute: Log4GUI: execute: 15000000: 0: 100b0: addi x3, x3, 496: 0
15000000: system.cpu.decode: Log4GUI: decode: 15000000: 0: 100b4: lb x4, 0(x3)
15000000: system.cpu.fetch1: Log4GUI: fetch1: 15000000: 0: 100b8: <assembly>
16000000: system.cpu.writeback: Log4GUI: writeback: 16000000: 0: 100ac: auipc x3, 1
16000000: system.cpu.writeback: REGISTERS
16000000: global: x0=0x00000000
16000000: global: x1=0x0001121c
16000000: global: x2=0x0001125c
16000000: global: x3=0x000110ac
16000000: global: x4=0x00000000
16000000: global: x5=0x00000000
16000000: global: x6=0x00000000
16000000: global: x7=0x00000000
16000000: global: x8=0x00000000
16000000: global: x9=0x00000000
16000000: global: x10=0x00000000
16000000: global: x11=0x00000000
16000000: global: x12=0x00000000
16000000: global: x13=0x00000000
16000000: global: x14=0x00000000
16000000: global: x15=0x00000000
16000000: global: x16=0x00000000
16000000: global: x17=0x00000000
16000000: global: x18=0x00000000
16000000: global: x19=0x00000000
16000000: global: x20=0x00000000
16000000: global: x21=0x00000000
16000000: global: x22=0x00000000
16000000: global: x23=0x00000000
16000000: global: x24=0x00000000
16000000: global: x25=0x00000000
16000000: global: x26=0x00000000
16000000: global: x27=0x00000000
16000000: global: x28=0x00000000
16000000: global: x29=0x00000000
16000000: global: x30=0x00000000
16000000: global: x31=0x00000000
16000000: global: f0=0x00000000
16000000: global: f1=0x4019999a
16000000: global: f2=0x00000000
16000000: global: f3=0x00000000
16000000: global: f4=0x00000000
16000000: global: f5=0x00000000
16000000: global: f6=0x00000000
16000000: global: f7=0x00000000
16000000: global: f8=0x00000000
16000000: global: f9=0x00000000
16000000: global: f10=0x00000000
16000000: global: f11=0x00000000
16000000: global: f12=0x00000000
16000000: global: f13=0x00000000
16000000: global: f14=0x00000000
16000000: global: f15=0x00000000
16000000: global: f16=0x00000000
16000000: global: f17=0x00000000
16000000: global: f18=0x00000000
16000000: global: f19=0x00000000
16000000: global: f20=0x00000000
16000000: global: f21=0x00000000
16000000: global: f22=0x00000000
16000000: global: f23=0x00000000
16000000: global: f24=0x00000000
16000000: global: f25=0x00000000
16000000: global: f26=0x00000000
16000000: global: f27=0x00000000
16000000: global: f28=0x00000000
16000000: global: f29=0x00000000
16000000: global: f30=0x00000000
16000000: global: f31=0x00000000
16000000: system.cpu.memory: Log4GUI: memory: 16000000: 0: 100b0: addi x3, x3, 496
16000000: system.cpu.execute: Log4GUI: execute: 16000000: 0: 100b4: lb x4, 0(x3): 0
16000000: system.cpu.decode: Log4GUI: decode: 16000000: 0: 100b8: auipc x3, 1
16000000: system.cpu.fetch1: Log4GUI: fetch1: 16000000: 0: 100bc: <assembly>
17000000: system.cpu.writeback: Log4GUI: writeback: 17000000: 0: 100b0: addi x3, x3, 496
17000000: system.cpu.writeback: REGISTERS
17000000: global: x0=0x00000000
17000000: global: x1=0x0001121c
17000000: global: x2=0x0001125c
17000000: global: x3=0x0001129c
17000000: global: x4=0x00000000
17000000: global: x5=0x00000000
17000000: global: x6=0x00000000
17000000: global: x7=0x00000000
17000000: global: x8=0x00000000
17000000: global: x9=0x00000000
17000000: global: x10=0x00000000
17000000: global: x11=0x00000000
17000000: global: x12=0x00000000
17000000: global: x13=0x00000000
17000000: global: x14=0x00000000
17000000: global: x15=0x00000000
17000000: global: x16=0x00000000
17000000: global: x17=0x00000000
17000000: global: x18=0x00000000
17000000: global: x19=0x00000000
17000000: global: x20=0x00000000
17000000: global: x21=0x00000000
17000000: global: x22=0x00000000
17000000: global: x23=0x00000000
17000000: global: x24=0x00000000
17000000: global: x25=0x00000000
17000000: global: x26=0x00000000
17000000: global: x27=0x00000000
17000000: global: x28=0x00000000
17000000: global: x29=0x00000000
17000000: global: x30=0x00000000
17000000: global: x31=0x00000000
17000000: global: f0=0x00000000
17000000: global: f1=0x4019999a
17000000: global: f2=0x00000000
17000000: global: f3=0x00000000
17000000: global: f4=0x00000000
17000000: global: f5=0x00000000
17000000: global: f6=0x00000000
17000000: global: f7=0x00000000
17000000: global: f8=0x00000000
17000000: global: f9=0x00000000
17000000: global: f10=0x00000000
17000000: global: f11=0x00000000
17000000: global: f12=0x00000000
17000000: global: f13=0x00000000
17000000: global: f14=0x00000000
17000000: global: f15=0x00000000
17000000: global: f16=0x00000000
17000000: global: f17=0x00000000
17000000: global: f18=0x00000000
17000000: global: f19=0x00000000
17000000: global: f20=0x00000000
17000000: global: f21=0x00000000
17000000: global: f22=0x00000000
17000000: global: f23=0x00000000
17000000: global: f24=0x00000000
17000000: global: f25=0x00000000
17000000: global: f26=0x00000000
17000000: global: f27=0x00000000
17000000: global: f28=0x00000000
17000000: global: f29=0x00000000
17000000: global: f30=0x00000000
17000000: global: f31=0x00000000
17000000: system.cpu.memory: Log4GUI: memory: 17000000: 0: 100b4: lb x4, 0(x3)
17000000: system.cpu.execute: Log4GUI: execute: 17000000: 0: 100b8: auipc x3, 1: 0
17000000: system.cpu.decode: Log4GUI: decode: 17000000: 0: 100bc: addi x3, x3, 489
17000000: system.cpu.fetch1: Log4GUI: fetch1: 17000000: 0: 100c0: <assembly>
18000000: system.cpu.writeback: Log4GUI: writeback: 18000000: 0: 100b4: lb x4, 0(x3)
18000000: system.cpu.writeback: REGISTERS
18000000: global: x0=0x00000000
18000000: global: x1=0x0001121c
18000000: global: x2=0x0001125c
18000000: global: x3=0x0001129c
18000000: global: x4=0xffffffab
18000000: global: x5=0x00000000
18000000: global: x6=0x00000000
18000000: global: x7=0x00000000
18000000: global: x8=0x00000000
18000000: global: x9=0x00000000
18000000: global: x10=0x00000000
18000000: global: x11=0x00000000
18000000: global: x12=0x00000000
18000000: global: x13=0x00000000
18000000: global: x14=0x00000000
18000000: global: x15=0x00000000
18000000: global: x16=0x00000000
18000000: global: x17=0x00000000
18000000: global: x18=0x00000000
18000000: global: x19=0x00000000
18000000: global: x20=0x00000000
18000000: global: x21=0x00000000
18000000: global: x22=0x00000000
18000000: global: x23=0x00000000
18000000: global: x24=0x00000000
18000000: global: x25=0x00000000
18000000: global: x26=0x00000000
18000000: global: x27=0x00000000
18000000: global: x28=0x00000000
18000000: global: x29=0x00000000
18000000: global: x30=0x00000000
18000000: global: x31=0x00000000
18000000: global: f0=0x00000000
18000000: global: f1=0x4019999a
18000000: global: f2=0x00000000
18000000: global: f3=0x00000000
18000000: global: f4=0x00000000
18000000: global: f5=0x00000000
18000000: global: f6=0x00000000
18000000: global: f7=0x00000000
18000000: global: f8=0x00000000
18000000: global: f9=0x00000000
18000000: global: f10=0x00000000
18000000: global: f11=0x00000000
18000000: global: f12=0x00000000
18000000: global: f13=0x00000000
18000000: global: f14=0x00000000
18000000: global: f15=0x00000000
18000000: global: f16=0x00000000
18000000: global: f17=0x00000000
18000000: global: f18=0x00000000
18000000: global: f19=0x00000000
18000000: global: f20=0x00000000
18000000: global: f21=0x00000000
18000000: global: f22=0x00000000
18000000: global: f23=0x00000000
18000000: global: f24=0x00000000
18000000: global: f25=0x00000000
18000000: global: f26=0x00000000
18000000: global: f27=0x00000000
18000000: global: f28=0x00000000
18000000: global: f29=0x00000000
18000000: global: f30=0x00000000
18000000: global: f31=0x00000000
18000000: system.cpu.memory: Log4GUI: memory: 18000000: 0: 100b8: auipc x3, 1
18000000: system.cpu.execute: Log4GUI: execute: 18000000: 0: 100bc: addi x3, x3, 489: 0
18000000: system.cpu.decode: Log4GUI: decode: 18000000: 0: 100c0: lb x5, 0(x3)
18000000: system.cpu.fetch1: Log4GUI: fetch1: 18000000: 0: 100c4: <assembly>
19000000: system.cpu.writeback: Log4GUI: writeback: 19000000: 0: 100b8: auipc x3, 1
19000000: system.cpu.writeback: REGISTERS
19000000: global: x0=0x00000000
19000000: global: x1=0x0001121c
19000000: global: x2=0x0001125c
19000000: global: x3=0x000110b8
19000000: global: x4=0xffffffab
19000000: global: x5=0x00000000
19000000: global: x6=0x00000000
19000000: global: x7=0x00000000
19000000: global: x8=0x00000000
19000000: global: x9=0x00000000
19000000: global: x10=0x00000000
19000000: global: x11=0x00000000
19000000: global: x12=0x00000000
19000000: global: x13=0x00000000
19000000: global: x14=0x00000000
19000000: global: x15=0x00000000
19000000: global: x16=0x00000000
19000000: global: x17=0x00000000
19000000: global: x18=0x00000000
19000000: global: x19=0x00000000
19000000: global: x20=0x00000000
19000000: global: x21=0x00000000
19000000: global: x22=0x00000000
19000000: global: x23=0x00000000
19000000: global: x24=0x00000000
19000000: global: x25=0x00000000
19000000: global: x26=0x00000000
19000000: global: x27=0x00000000
19000000: global: x28=0x00000000
19000000: global: x29=0x00000000
19000000: global: x30=0x00000000
19000000: global: x31=0x00000000
19000000: global: f0=0x00000000
19000000: global: f1=0x4019999a
19000000: global: f2=0x00000000
19000000: global: f3=0x00000000
19000000: global: f4=0x00000000
19000000: global: f5=0x00000000
19000000: global: f6=0x00000000
19000000: global: f7=0x00000000
19000000: global: f8=0x00000000
19000000: global: f9=0x00000000
19000000: global: f10=0x00000000
19000000: global: f11=0x00000000
19000000: global: f12=0x00000000
19000000: global: f13=0x00000000
19000000: global: f14=0x00000000
19000000: global: f15=0x00000000
19000000: global: f16=0x00000000
19000000: global: f17=0x00000000
19000000: global: f18=0x00000000
19000000: global: f19=0x00000000
19000000: global: f20=0x00000000
19000000: global: f21=0x00000000
19000000: global: f22=0x00000000
19000000: global: f23=0x00000000
19000000: global: f24=0x00000000
19000000: global: f25=0x00000000
19000000: global: f26=0x00000000
19000000: global: f27=0x00000000
19000000: global: f28=0x00000000
19000000: global: f29=0x00000000
19000000: global: f30=0x00000000
19000000: global: f31=0x00000000
19000000: system.cpu.memory: Log4GUI: memory: 19000000: 0: 100bc: addi x3, x3, 489
19000000: system.cpu.execute: Log4GUI: execute: 19000000: 0: 100c0: lb x5, 0(x3): 0
19000000: system.cpu.decode: Log4GUI: decode: 19000000: 0: 100c4: auipc x8, 1
19000000: system.cpu.fetch1: Log4GUI: fetch1: 19000000: 0: 100c8: <assembly>
20000000: system.cpu.writeback: Log4GUI: writeback: 20000000: 0: 100bc: addi x3, x3, 489
20000000: system.cpu.writeback: REGISTERS
20000000: global: x0=0x00000000
20000000: global: x1=0x0001121c
20000000: global: x2=0x0001125c
20000000: global: x3=0x000112a1
20000000: global: x4=0xffffffab
20000000: global: x5=0x00000000
20000000: global: x6=0x00000000
20000000: global: x7=0x00000000
20000000: global: x8=0x00000000
20000000: global: x9=0x00000000
20000000: global: x10=0x00000000
20000000: global: x11=0x00000000
20000000: global: x12=0x00000000
20000000: global: x13=0x00000000
20000000: global: x14=0x00000000
20000000: global: x15=0x00000000
20000000: global: x16=0x00000000
20000000: global: x17=0x00000000
20000000: global: x18=0x00000000
20000000: global: x19=0x00000000
20000000: global: x20=0x00000000
20000000: global: x21=0x00000000
20000000: global: x22=0x00000000
20000000: global: x23=0x00000000
20000000: global: x24=0x00000000
20000000: global: x25=0x00000000
20000000: global: x26=0x00000000
20000000: global: x27=0x00000000
20000000: global: x28=0x00000000
20000000: global: x29=0x00000000
20000000: global: x30=0x00000000
20000000: global: x31=0x00000000
20000000: global: f0=0x00000000
20000000: global: f1=0x4019999a
20000000: global: f2=0x00000000
20000000: global: f3=0x00000000
20000000: global: f4=0x00000000
20000000: global: f5=0x00000000
20000000: global: f6=0x00000000
20000000: global: f7=0x00000000
20000000: global: f8=0x00000000
20000000: global: f9=0x00000000
20000000: global: f10=0x00000000
20000000: global: f11=0x00000000
20000000: global: f12=0x00000000
20000000: global: f13=0x00000000
20000000: global: f14=0x00000000
20000000: global: f15=0x00000000
20000000: global: f16=0x00000000
20000000: global: f17=0x00000000
20000000: global: f18=0x00000000
20000000: global: f19=0x00000000
20000000: global: f20=0x00000000
20000000: global: f21=0x00000000
20000000: global: f22=0x00000000
20000000: global: f23=0x00000000
20000000: global: f24=0x00000000
20000000: global: f25=0x00000000
20000000: global: f26=0x00000000
20000000: global: f27=0x00000000
20000000: global: f28=0x00000000
20000000: global: f29=0x00000000
20000000: global: f30=0x00000000
20000000: global: f31=0x00000000
20000000: system.cpu.memory: Log4GUI: memory: 20000000: 0: 100c0: lb x5, 0(x3)
20000000: system.cpu.execute: Log4GUI: execute: 20000000: 0: 100c4: auipc x8, 1: 0
20000000: system.cpu.decode: Log4GUI: decode: 20000000: 0: 100c8: addi x8, x8, 473
20000000: system.cpu.fetch1: Log4GUI: fetch1: 20000000: 0: 100cc: <assembly>
21000000: system.cpu.writeback: Log4GUI: writeback: 21000000: 0: 100c0: lb x5, 0(x3)
21000000: system.cpu.writeback: REGISTERS
21000000: global: x0=0x00000000
21000000: global: x1=0x0001121c
21000000: global: x2=0x0001125c
21000000: global: x3=0x000112a1
21000000: global: x4=0xffffffab
21000000: global: x5=0x00000010
21000000: global: x6=0x00000000
21000000: global: x7=0x00000000
21000000: global: x8=0x00000000
21000000: global: x9=0x00000000
21000000: global: x10=0x00000000
21000000: global: x11=0x00000000
21000000: global: x12=0x00000000
21000000: global: x13=0x00000000
21000000: global: x14=0x00000000
21000000: global: x15=0x00000000
21000000: global: x16=0x00000000
21000000: global: x17=0x00000000
21000000: global: x18=0x00000000
21000000: global: x19=0x00000000
21000000: global: x20=0x00000000
21000000: global: x21=0x00000000
21000000: global: x22=0x00000000
21000000: global: x23=0x00000000
21000000: global: x24=0x00000000
21000000: global: x25=0x00000000
21000000: global: x26=0x00000000
21000000: global: x27=0x00000000
21000000: global: x28=0x00000000
21000000: global: x29=0x00000000
21000000: global: x30=0x00000000
21000000: global: x31=0x00000000
21000000: global: f0=0x00000000
21000000: global: f1=0x4019999a
21000000: global: f2=0x00000000
21000000: global: f3=0x00000000
21000000: global: f4=0x00000000
21000000: global: f5=0x00000000
21000000: global: f6=0x00000000
21000000: global: f7=0x00000000
21000000: global: f8=0x00000000
21000000: global: f9=0x00000000
21000000: global: f10=0x00000000
21000000: global: f11=0x00000000
21000000: global: f12=0x00000000
21000000: global: f13=0x00000000
21000000: global: f14=0x00000000
21000000: global: f15=0x00000000
21000000: global: f16=0x00000000
21000000: global: f17=0x00000000
21000000: global: f18=0x00000000
21000000: global: f19=0x00000000
21000000: global: f20=0x00000000
21000000: global: f21=0x00000000
21000000: global: f22=0x00000000
21000000: global: f23=0x00000000
21000000: global: f24=0x00000000
21000000: global: f25=0x00000000
21000000: global: f26=0x00000000
21000000: global: f27=0x00000000
21000000: global: f28=0x00000000
21000000: global: f29=0x00000000
21000000: global: f30=0x00000000
21000000: global: f31=0x00000000
21000000: system.cpu.memory: Log4GUI: memory: 21000000: 0: 100c4: auipc x8, 1
21000000: system.cpu.execute: Log4GUI: execute: 21000000: 0: 100c8: addi x8, x8, 473: 0
21000000: system.cpu.decode: Log4GUI: decode: 21000000: 0: 100cc: lw x9, 0(x8)
21000000: system.cpu.fetch1: Log4GUI: fetch1: 21000000: 0: 100d0: <assembly>
22000000: system.cpu.writeback: Log4GUI: writeback: 22000000: 0: 100c4: auipc x8, 1
22000000: system.cpu.writeback: REGISTERS
22000000: global: x0=0x00000000
22000000: global: x1=0x0001121c
22000000: global: x2=0x0001125c
22000000: global: x3=0x000112a1
22000000: global: x4=0xffffffab
22000000: global: x5=0x00000010
22000000: global: x6=0x00000000
22000000: global: x7=0x00000000
22000000: global: x8=0x000110c4
22000000: global: x9=0x00000000
22000000: global: x10=0x00000000
22000000: global: x11=0x00000000
22000000: global: x12=0x00000000
22000000: global: x13=0x00000000
22000000: global: x14=0x00000000
22000000: global: x15=0x00000000
22000000: global: x16=0x00000000
22000000: global: x17=0x00000000
22000000: global: x18=0x00000000
22000000: global: x19=0x00000000
22000000: global: x20=0x00000000
22000000: global: x21=0x00000000
22000000: global: x22=0x00000000
22000000: global: x23=0x00000000
22000000: global: x24=0x00000000
22000000: global: x25=0x00000000
22000000: global: x26=0x00000000
22000000: global: x27=0x00000000
22000000: global: x28=0x00000000
22000000: global: x29=0x00000000
22000000: global: x30=0x00000000
22000000: global: x31=0x00000000
22000000: global: f0=0x00000000
22000000: global: f1=0x4019999a
22000000: global: f2=0x00000000
22000000: global: f3=0x00000000
22000000: global: f4=0x00000000
22000000: global: f5=0x00000000
22000000: global: f6=0x00000000
22000000: global: f7=0x00000000
22000000: global: f8=0x00000000
22000000: global: f9=0x00000000
22000000: global: f10=0x00000000
22000000: global: f11=0x00000000
22000000: global: f12=0x00000000
22000000: global: f13=0x00000000
22000000: global: f14=0x00000000
22000000: global: f15=0x00000000
22000000: global: f16=0x00000000
22000000: global: f17=0x00000000
22000000: global: f18=0x00000000
22000000: global: f19=0x00000000
22000000: global: f20=0x00000000
22000000: global: f21=0x00000000
22000000: global: f22=0x00000000
22000000: global: f23=0x00000000
22000000: global: f24=0x00000000
22000000: global: f25=0x00000000
22000000: global: f26=0x00000000
22000000: global: f27=0x00000000
22000000: global: f28=0x00000000
22000000: global: f29=0x00000000
22000000: global: f30=0x00000000
22000000: global: f31=0x00000000
22000000: system.cpu.memory: Log4GUI: memory: 22000000: 0: 100c8: addi x8, x8, 473
22000000: system.cpu.execute: Log4GUI: execute: 22000000: 0: 100cc: lw x9, 0(x8): 0
22000000: system.cpu.decode: Log4GUI: decode: 22000000: 0: 100d0: auipc x11, 1
22000000: system.cpu.fetch1: Log4GUI: fetch1: 22000000: 0: 100d4: <assembly>
23000000: system.cpu.writeback: Log4GUI: writeback: 23000000: 0: 100c8: addi x8, x8, 473
23000000: system.cpu.writeback: REGISTERS
23000000: global: x0=0x00000000
23000000: global: x1=0x0001121c
23000000: global: x2=0x0001125c
23000000: global: x3=0x000112a1
23000000: global: x4=0xffffffab
23000000: global: x5=0x00000010
23000000: global: x6=0x00000000
23000000: global: x7=0x00000000
23000000: global: x8=0x0001129d
23000000: global: x9=0x00000000
23000000: global: x10=0x00000000
23000000: global: x11=0x00000000
23000000: global: x12=0x00000000
23000000: global: x13=0x00000000
23000000: global: x14=0x00000000
23000000: global: x15=0x00000000
23000000: global: x16=0x00000000
23000000: global: x17=0x00000000
23000000: global: x18=0x00000000
23000000: global: x19=0x00000000
23000000: global: x20=0x00000000
23000000: global: x21=0x00000000
23000000: global: x22=0x00000000
23000000: global: x23=0x00000000
23000000: global: x24=0x00000000
23000000: global: x25=0x00000000
23000000: global: x26=0x00000000
23000000: global: x27=0x00000000
23000000: global: x28=0x00000000
23000000: global: x29=0x00000000
23000000: global: x30=0x00000000
23000000: global: x31=0x00000000
23000000: global: f0=0x00000000
23000000: global: f1=0x4019999a
23000000: global: f2=0x00000000
23000000: global: f3=0x00000000
23000000: global: f4=0x00000000
23000000: global: f5=0x00000000
23000000: global: f6=0x00000000
23000000: global: f7=0x00000000
23000000: global: f8=0x00000000
23000000: global: f9=0x00000000
23000000: global: f10=0x00000000
23000000: global: f11=0x00000000
23000000: global: f12=0x00000000
23000000: global: f13=0x00000000
23000000: global: f14=0x00000000
23000000: global: f15=0x00000000
23000000: global: f16=0x00000000
23000000: global: f17=0x00000000
23000000: global: f18=0x00000000
23000000: global: f19=0x00000000
23000000: global: f20=0x00000000
23000000: global: f21=0x00000000
23000000: global: f22=0x00000000
23000000: global: f23=0x00000000
23000000: global: f24=0x00000000
23000000: global: f25=0x00000000
23000000: global: f26=0x00000000
23000000: global: f27=0x00000000
23000000: global: f28=0x00000000
23000000: global: f29=0x00000000
23000000: global: f30=0x00000000
23000000: global: f31=0x00000000
23000000: system.cpu.memory: Log4GUI: memory: 23000000: 0: 100cc: lw x9, 0(x8)
23000000: system.cpu.execute: Log4GUI: execute: 23000000: 0: 100d0: auipc x11, 1: 0
23000000: system.cpu.decode: Log4GUI: decode: 23000000: 0: 100d4: addi x11, x11, 460
23000000: system.cpu.fetch1: Log4GUI: fetch1: 23000000: 0: 100d8: <assembly>
24000000: system.cpu.writeback: Log4GUI: writeback: 24000000: 0: 100cc: lw x9, 0(x8)
24000000: system.cpu.writeback: REGISTERS
24000000: global: x0=0x00000000
24000000: global: x1=0x0001121c
24000000: global: x2=0x0001125c
24000000: global: x3=0x000112a1
24000000: global: x4=0xffffffab
24000000: global: x5=0x00000010
24000000: global: x6=0x00000000
24000000: global: x7=0x00000000
24000000: global: x8=0x0001129d
24000000: global: x9=0x7f800000
24000000: global: x10=0x00000000
24000000: global: x11=0x00000000
24000000: global: x12=0x00000000
24000000: global: x13=0x00000000
24000000: global: x14=0x00000000
24000000: global: x15=0x00000000
24000000: global: x16=0x00000000
24000000: global: x17=0x00000000
24000000: global: x18=0x00000000
24000000: global: x19=0x00000000
24000000: global: x20=0x00000000
24000000: global: x21=0x00000000
24000000: global: x22=0x00000000
24000000: global: x23=0x00000000
24000000: global: x24=0x00000000
24000000: global: x25=0x00000000
24000000: global: x26=0x00000000
24000000: global: x27=0x00000000
24000000: global: x28=0x00000000
24000000: global: x29=0x00000000
24000000: global: x30=0x00000000
24000000: global: x31=0x00000000
24000000: global: f0=0x00000000
24000000: global: f1=0x4019999a
24000000: global: f2=0x00000000
24000000: global: f3=0x00000000
24000000: global: f4=0x00000000
24000000: global: f5=0x00000000
24000000: global: f6=0x00000000
24000000: global: f7=0x00000000
24000000: global: f8=0x00000000
24000000: global: f9=0x00000000
24000000: global: f10=0x00000000
24000000: global: f11=0x00000000
24000000: global: f12=0x00000000
24000000: global: f13=0x00000000
24000000: global: f14=0x00000000
24000000: global: f15=0x00000000
24000000: global: f16=0x00000000
24000000: global: f17=0x00000000
24000000: global: f18=0x00000000
24000000: global: f19=0x00000000
24000000: global: f20=0x00000000
24000000: global: f21=0x00000000
24000000: global: f22=0x00000000
24000000: global: f23=0x00000000
24000000: global: f24=0x00000000
24000000: global: f25=0x00000000
24000000: global: f26=0x00000000
24000000: global: f27=0x00000000
24000000: global: f28=0x00000000
24000000: global: f29=0x00000000
24000000: global: f30=0x00000000
24000000: global: f31=0x00000000
24000000: system.cpu.memory: Log4GUI: memory: 24000000: 0: 100d0: auipc x11, 1
24000000: system.cpu.execute: Log4GUI: execute: 24000000: 0: 100d4: addi x11, x11, 460: 0
24000000: system.cpu.decode: Log4GUI: decode: 24000000: 0: 100d8: add x6, x0, x0
24000000: system.cpu.fetch1: Log4GUI: fetch1: 24000000: 0: 100dc: <assembly>
25000000: system.cpu.writeback: Log4GUI: writeback: 25000000: 0: 100d0: auipc x11, 1
25000000: system.cpu.writeback: REGISTERS
25000000: global: x0=0x00000000
25000000: global: x1=0x0001121c
25000000: global: x2=0x0001125c
25000000: global: x3=0x000112a1
25000000: global: x4=0xffffffab
25000000: global: x5=0x00000010
25000000: global: x6=0x00000000
25000000: global: x7=0x00000000
25000000: global: x8=0x0001129d
25000000: global: x9=0x7f800000
25000000: global: x10=0x00000000
25000000: global: x11=0x000110d0
25000000: global: x12=0x00000000
25000000: global: x13=0x00000000
25000000: global: x14=0x00000000
25000000: global: x15=0x00000000
25000000: global: x16=0x00000000
25000000: global: x17=0x00000000
25000000: global: x18=0x00000000
25000000: global: x19=0x00000000
25000000: global: x20=0x00000000
25000000: global: x21=0x00000000
25000000: global: x22=0x00000000
25000000: global: x23=0x00000000
25000000: global: x24=0x00000000
25000000: global: x25=0x00000000
25000000: global: x26=0x00000000
25000000: global: x27=0x00000000
25000000: global: x28=0x00000000
25000000: global: x29=0x00000000
25000000: global: x30=0x00000000
25000000: global: x31=0x00000000
25000000: global: f0=0x00000000
25000000: global: f1=0x4019999a
25000000: global: f2=0x00000000
25000000: global: f3=0x00000000
25000000: global: f4=0x00000000
25000000: global: f5=0x00000000
25000000: global: f6=0x00000000
25000000: global: f7=0x00000000
25000000: global: f8=0x00000000
25000000: global: f9=0x00000000
25000000: global: f10=0x00000000
25000000: global: f11=0x00000000
25000000: global: f12=0x00000000
25000000: global: f13=0x00000000
25000000: global: f14=0x00000000
25000000: global: f15=0x00000000
25000000: global: f16=0x00000000
25000000: global: f17=0x00000000
25000000: global: f18=0x00000000
25000000: global: f19=0x00000000
25000000: global: f20=0x00000000
25000000: global: f21=0x00000000
25000000: global: f22=0x00000000
25000000: global: f23=0x00000000
25000000: global: f24=0x00000000
25000000: global: f25=0x00000000
25000000: global: f26=0x00000000
25000000: global: f27=0x00000000
25000000: global: f28=0x00000000
25000000: global: f29=0x00000000
25000000: global: f30=0x00000000
25000000: global: f31=0x00000000
25000000: system.cpu.memory: Log4GUI: memory: 25000000: 0: 100d4: addi x11, x11, 460
25000000: system.cpu.execute: Log4GUI: execute: 25000000: 0: 100d8: add x6, x0, x0: 0
25000000: system.cpu.decode: Log4GUI: decode: 25000000: 0: 100dc: slli x7, x6, 2
25000000: system.cpu.fetch1: Log4GUI: fetch1: 25000000: 0: 100e0: <assembly>
26000000: system.cpu.writeback: Log4GUI: writeback: 26000000: 0: 100d4: addi x11, x11, 460
26000000: system.cpu.writeback: REGISTERS
26000000: global: x0=0x00000000
26000000: global: x1=0x0001121c
26000000: global: x2=0x0001125c
26000000: global: x3=0x000112a1
26000000: global: x4=0xffffffab
26000000: global: x5=0x00000010
26000000: global: x6=0x00000000
26000000: global: x7=0x00000000
26000000: global: x8=0x0001129d
26000000: global: x9=0x7f800000
26000000: global: x10=0x00000000
26000000: global: x11=0x0001129c
26000000: global: x12=0x00000000
26000000: global: x13=0x00000000
26000000: global: x14=0x00000000
26000000: global: x15=0x00000000
26000000: global: x16=0x00000000
26000000: global: x17=0x00000000
26000000: global: x18=0x00000000
26000000: global: x19=0x00000000
26000000: global: x20=0x00000000
26000000: global: x21=0x00000000
26000000: global: x22=0x00000000
26000000: global: x23=0x00000000
26000000: global: x24=0x00000000
26000000: global: x25=0x00000000
26000000: global: x26=0x00000000
26000000: global: x27=0x00000000
26000000: global: x28=0x00000000
26000000: global: x29=0x00000000
26000000: global: x30=0x00000000
26000000: global: x31=0x00000000
26000000: global: f0=0x00000000
26000000: global: f1=0x4019999a
26000000: global: f2=0x00000000
26000000: global: f3=0x00000000
26000000: global: f4=0x00000000
26000000: global: f5=0x00000000
26000000: global: f6=0x00000000
26000000: global: f7=0x00000000
26000000: global: f8=0x00000000
26000000: global: f9=0x00000000
26000000: global: f10=0x00000000
26000000: global: f11=0x00000000
26000000: global: f12=0x00000000
26000000: global: f13=0x00000000
26000000: global: f14=0x00000000
26000000: global: f15=0x00000000
26000000: global: f16=0x00000000
26000000: global: f17=0x00000000
26000000: global: f18=0x00000000
26000000: global: f19=0x00000000
26000000: global: f20=0x00000000
26000000: global: f21=0x00000000
26000000: global: f22=0x00000000
26000000: global: f23=0x00000000
26000000: global: f24=0x00000000
26000000: global: f25=0x00000000
26000000: global: f26=0x00000000
26000000: global: f27=0x00000000
26000000: global: f28=0x00000000
26000000: global: f29=0x00000000
26000000: global: f30=0x00000000
26000000: global: f31=0x00000000
26000000: system.cpu.memory: Log4GUI: memory: 26000000: 0: 100d8: add x6, x0, x0
26000000: system.cpu.execute: Log4GUI: execute: 26000000: 0: 100dc: slli x7, x6, 2: 0
26000000: system.cpu.decode: Log4GUI: decode: 26000000: 0: 100e0: fcvt_s_w f3, x4
26000000: system.cpu.fetch1: Log4GUI: fetch1: 26000000: 0: 100e4: <assembly>
27000000: system.cpu.writeback: Log4GUI: writeback: 27000000: 0: 100d8: add x6, x0, x0
27000000: system.cpu.writeback: REGISTERS
27000000: global: x0=0x00000000
27000000: global: x1=0x0001121c
27000000: global: x2=0x0001125c
27000000: global: x3=0x000112a1
27000000: global: x4=0xffffffab
27000000: global: x5=0x00000010
27000000: global: x6=0x00000000
27000000: global: x7=0x00000000
27000000: global: x8=0x0001129d
27000000: global: x9=0x7f800000
27000000: global: x10=0x00000000
27000000: global: x11=0x0001129c
27000000: global: x12=0x00000000
27000000: global: x13=0x00000000
27000000: global: x14=0x00000000
27000000: global: x15=0x00000000
27000000: global: x16=0x00000000
27000000: global: x17=0x00000000
27000000: global: x18=0x00000000
27000000: global: x19=0x00000000
27000000: global: x20=0x00000000
27000000: global: x21=0x00000000
27000000: global: x22=0x00000000
27000000: global: x23=0x00000000
27000000: global: x24=0x00000000
27000000: global: x25=0x00000000
27000000: global: x26=0x00000000
27000000: global: x27=0x00000000
27000000: global: x28=0x00000000
27000000: global: x29=0x00000000
27000000: global: x30=0x00000000
27000000: global: x31=0x00000000
27000000: global: f0=0x00000000
27000000: global: f1=0x4019999a
27000000: global: f2=0x00000000
27000000: global: f3=0x00000000
27000000: global: f4=0x00000000
27000000: global: f5=0x00000000
27000000: global: f6=0x00000000
27000000: global: f7=0x00000000
27000000: global: f8=0x00000000
27000000: global: f9=0x00000000
27000000: global: f10=0x00000000
27000000: global: f11=0x00000000
27000000: global: f12=0x00000000
27000000: global: f13=0x00000000
27000000: global: f14=0x00000000
27000000: global: f15=0x00000000
27000000: global: f16=0x00000000
27000000: global: f17=0x00000000
27000000: global: f18=0x00000000
27000000: global: f19=0x00000000
27000000: global: f20=0x00000000
27000000: global: f21=0x00000000
27000000: global: f22=0x00000000
27000000: global: f23=0x00000000
27000000: global: f24=0x00000000
27000000: global: f25=0x00000000
27000000: global: f26=0x00000000
27000000: global: f27=0x00000000
27000000: global: f28=0x00000000
27000000: global: f29=0x00000000
27000000: global: f30=0x00000000
27000000: global: f31=0x00000000
27000000: system.cpu.memory: Log4GUI: memory: 27000000: 0: 100dc: slli x7, x6, 2
27000000: system.cpu.execute: Log4GUI: execute: 27000000: 0: 100e0: fcvt_s_w f3, x4: 3
27000000: system.cpu.decode: Log4GUI: decode: 27000000: 0: 100e4: fmv_w_x f5, x0
27000000: system.cpu.fetch1: Log4GUI: fetch1: 27000000: 0: 100e8: <assembly>
28000000: system.cpu.writeback: Log4GUI: writeback: 28000000: 0: 100dc: slli x7, x6, 2
28000000: system.cpu.writeback: REGISTERS
28000000: global: x0=0x00000000
28000000: global: x1=0x0001121c
28000000: global: x2=0x0001125c
28000000: global: x3=0x000112a1
28000000: global: x4=0xffffffab
28000000: global: x5=0x00000010
28000000: global: x6=0x00000000
28000000: global: x7=0x00000000
28000000: global: x8=0x0001129d
28000000: global: x9=0x7f800000
28000000: global: x10=0x00000000
28000000: global: x11=0x0001129c
28000000: global: x12=0x00000000
28000000: global: x13=0x00000000
28000000: global: x14=0x00000000
28000000: global: x15=0x00000000
28000000: global: x16=0x00000000
28000000: global: x17=0x00000000
28000000: global: x18=0x00000000
28000000: global: x19=0x00000000
28000000: global: x20=0x00000000
28000000: global: x21=0x00000000
28000000: global: x22=0x00000000
28000000: global: x23=0x00000000
28000000: global: x24=0x00000000
28000000: global: x25=0x00000000
28000000: global: x26=0x00000000
28000000: global: x27=0x00000000
28000000: global: x28=0x00000000
28000000: global: x29=0x00000000
28000000: global: x30=0x00000000
28000000: global: x31=0x00000000
28000000: global: f0=0x00000000
28000000: global: f1=0x4019999a
28000000: global: f2=0x00000000
28000000: global: f3=0x00000000
28000000: global: f4=0x00000000
28000000: global: f5=0x00000000
28000000: global: f6=0x00000000
28000000: global: f7=0x00000000
28000000: global: f8=0x00000000
28000000: global: f9=0x00000000
28000000: global: f10=0x00000000
28000000: global: f11=0x00000000
28000000: global: f12=0x00000000
28000000: global: f13=0x00000000
28000000: global: f14=0x00000000
28000000: global: f15=0x00000000
28000000: global: f16=0x00000000
28000000: global: f17=0x00000000
28000000: global: f18=0x00000000
28000000: global: f19=0x00000000
28000000: global: f20=0x00000000
28000000: global: f21=0x00000000
28000000: global: f22=0x00000000
28000000: global: f23=0x00000000
28000000: global: f24=0x00000000
28000000: global: f25=0x00000000
28000000: global: f26=0x00000000
28000000: global: f27=0x00000000
28000000: global: f28=0x00000000
28000000: global: f29=0x00000000
28000000: global: f30=0x00000000
28000000: global: f31=0x00000000
28000000: system.cpu.execute: Log4GUI: execute: 28000000: 0: 100e4: fmv_w_x f5, x0: 3
28000000: system.cpu.execute: Log4GUI: execute: 28000000: 0: 100e0: fcvt_s_w f3, x4: 3
28000000: system.cpu.decode: Log4GUI: decode: 28000000: 0: 100e8: beq x6, x5, 264
28000000: system.cpu.fetch1: Log4GUI: fetch1: 28000000: 0: 100ec: <assembly>
29000000: system.cpu.execute: Log4GUI: execute: 29000000: 0: 100e8: beq x6, x5, 264: 0
29000000: system.cpu.execute: Log4GUI: execute: 29000000: 0: 100e0: fcvt_s_w f3, x4: 3
29000000: system.cpu.execute: Log4GUI: execute: 29000000: 0: 100e4: fmv_w_x f5, x0: 3
29000000: system.cpu.decode: Log4GUI: decode: 29000000: 0: 100ec: add x12, x1, x7
29000000: system.cpu.fetch1: Log4GUI: fetch1: 29000000: 0: 100f0: <assembly>
30000000: system.cpu.memory: Log4GUI: memory: 30000000: 0: 100e8: beq x6, x5, 264
30000000: system.cpu.execute: Log4GUI: execute: 30000000: 0: 100ec: add x12, x1, x7: 0
30000000: system.cpu.execute: Log4GUI: execute: 30000000: 0: 100e0: fcvt_s_w f3, x4: 3
30000000: system.cpu.execute: Log4GUI: execute: 30000000: 0: 100e4: fmv_w_x f5, x0: 3
30000000: system.cpu.decode: Log4GUI: decode: 30000000: 0: 100f0: flw f1, 0(x12)
30000000: system.cpu.fetch1: Log4GUI: fetch1: 30000000: 0: 100f4: <assembly>
31000000: system.cpu.writeback: Log4GUI: writeback: 31000000: 0: 100e8: beq x6, x5, 264
31000000: system.cpu.writeback: REGISTERS
31000000: global: x0=0x00000000
31000000: global: x1=0x0001121c
31000000: global: x2=0x0001125c
31000000: global: x3=0x000112a1
31000000: global: x4=0xffffffab
31000000: global: x5=0x00000010
31000000: global: x6=0x00000000
31000000: global: x7=0x00000000
31000000: global: x8=0x0001129d
31000000: global: x9=0x7f800000
31000000: global: x10=0x00000000
31000000: global: x11=0x0001129c
31000000: global: x12=0x00000000
31000000: global: x13=0x00000000
31000000: global: x14=0x00000000
31000000: global: x15=0x00000000
31000000: global: x16=0x00000000
31000000: global: x17=0x00000000
31000000: global: x18=0x00000000
31000000: global: x19=0x00000000
31000000: global: x20=0x00000000
31000000: global: x21=0x00000000
31000000: global: x22=0x00000000
31000000: global: x23=0x00000000
31000000: global: x24=0x00000000
31000000: global: x25=0x00000000
31000000: global: x26=0x00000000
31000000: global: x27=0x00000000
31000000: global: x28=0x00000000
31000000: global: x29=0x00000000
31000000: global: x30=0x00000000
31000000: global: x31=0x00000000
31000000: global: f0=0x00000000
31000000: global: f1=0x4019999a
31000000: global: f2=0x00000000
31000000: global: f3=0x00000000
31000000: global: f4=0x00000000
31000000: global: f5=0x00000000
31000000: global: f6=0x00000000
31000000: global: f7=0x00000000
31000000: global: f8=0x00000000
31000000: global: f9=0x00000000
31000000: global: f10=0x00000000
31000000: global: f11=0x00000000
31000000: global: f12=0x00000000
31000000: global: f13=0x00000000
31000000: global: f14=0x00000000
31000000: global: f15=0x00000000
31000000: global: f16=0x00000000
31000000: global: f17=0x00000000
31000000: global: f18=0x00000000
31000000: global: f19=0x00000000
31000000: global: f20=0x00000000
31000000: global: f21=0x00000000
31000000: global: f22=0x00000000
31000000: global: f23=0x00000000
31000000: global: f24=0x00000000
31000000: global: f25=0x00000000
31000000: global: f26=0x00000000
31000000: global: f27=0x00000000
31000000: global: f28=0x00000000
31000000: global: f29=0x00000000
31000000: global: f30=0x00000000
31000000: global: f31=0x00000000
31000000: system.cpu.memory: Log4GUI: memory: 31000000: 0: 100e0: fcvt_s_w f3, x4
31000000: system.cpu.execute: Log4GUI: execute: 31000000: 0: 100e4: fmv_w_x f5, x0: 3
31000000: system.cpu.execute: Log4GUI: execute: 31000000: 1: 100ec: add x12, x1, x7: 0
31000000: system.cpu.decode: Log4GUI: decode: 31000000: 1: 100f0: flw f1, 0(x12)
31000000: system.cpu.fetch1: Log4GUI: fetch1: 31000000: 1: 100f4: <assembly>
32000000: system.cpu.writeback: Log4GUI: writeback: 32000000: 0: 100e0: fcvt_s_w f3, x4
32000000: system.cpu.writeback: REGISTERS
32000000: global: x0=0x00000000
32000000: global: x1=0x0001121c
32000000: global: x2=0x0001125c
32000000: global: x3=0x000112a1
32000000: global: x4=0xffffffab
32000000: global: x5=0x00000010
32000000: global: x6=0x00000000
32000000: global: x7=0x00000000
32000000: global: x8=0x0001129d
32000000: global: x9=0x7f800000
32000000: global: x10=0x00000000
32000000: global: x11=0x0001129c
32000000: global: x12=0x00000000
32000000: global: x13=0x00000000
32000000: global: x14=0x00000000
32000000: global: x15=0x00000000
32000000: global: x16=0x00000000
32000000: global: x17=0x00000000
32000000: global: x18=0x00000000
32000000: global: x19=0x00000000
32000000: global: x20=0x00000000
32000000: global: x21=0x00000000
32000000: global: x22=0x00000000
32000000: global: x23=0x00000000
32000000: global: x24=0x00000000
32000000: global: x25=0x00000000
32000000: global: x26=0x00000000
32000000: global: x27=0x00000000
32000000: global: x28=0x00000000
32000000: global: x29=0x00000000
32000000: global: x30=0x00000000
32000000: global: x31=0x00000000
32000000: global: f0=0x00000000
32000000: global: f1=0x4019999a
32000000: global: f2=0x00000000
32000000: global: f3=0xc2aa0000
32000000: global: f4=0x00000000
32000000: global: f5=0x00000000
32000000: global: f6=0x00000000
32000000: global: f7=0x00000000
32000000: global: f8=0x00000000
32000000: global: f9=0x00000000
32000000: global: f10=0x00000000
32000000: global: f11=0x00000000
32000000: global: f12=0x00000000
32000000: global: f13=0x00000000
32000000: global: f14=0x00000000
32000000: global: f15=0x00000000
32000000: global: f16=0x00000000
32000000: global: f17=0x00000000
32000000: global: f18=0x00000000
32000000: global: f19=0x00000000
32000000: global: f20=0x00000000
32000000: global: f21=0x00000000
32000000: global: f22=0x00000000
32000000: global: f23=0x00000000
32000000: global: f24=0x00000000
32000000: global: f25=0x00000000
32000000: global: f26=0x00000000
32000000: global: f27=0x00000000
32000000: global: f28=0x00000000
32000000: global: f29=0x00000000
32000000: global: f30=0x00000000
32000000: global: f31=0x00000000
32000000: system.cpu.memory: Log4GUI: memory: 32000000: 0: 100e4: fmv_w_x f5, x0
32000000: system.cpu.decode: Log4GUI: decode: 32000000: 1: 100f0: flw f1, 0(x12)
32000000: system.cpu.fetch1: Log4GUI: fetch1: 32000000: 1: 100f4: <assembly>
33000000: system.cpu.writeback: Log4GUI: writeback: 33000000: 0: 100e4: fmv_w_x f5, x0
33000000: system.cpu.writeback: REGISTERS
33000000: global: x0=0x00000000
33000000: global: x1=0x0001121c
33000000: global: x2=0x0001125c
33000000: global: x3=0x000112a1
33000000: global: x4=0xffffffab
33000000: global: x5=0x00000010
33000000: global: x6=0x00000000
33000000: global: x7=0x00000000
33000000: global: x8=0x0001129d
33000000: global: x9=0x7f800000
33000000: global: x10=0x00000000
33000000: global: x11=0x0001129c
33000000: global: x12=0x00000000
33000000: global: x13=0x00000000
33000000: global: x14=0x00000000
33000000: global: x15=0x00000000
33000000: global: x16=0x00000000
33000000: global: x17=0x00000000
33000000: global: x18=0x00000000
33000000: global: x19=0x00000000
33000000: global: x20=0x00000000
33000000: global: x21=0x00000000
33000000: global: x22=0x00000000
33000000: global: x23=0x00000000
33000000: global: x24=0x00000000
33000000: global: x25=0x00000000
33000000: global: x26=0x00000000
33000000: global: x27=0x00000000
33000000: global: x28=0x00000000
33000000: global: x29=0x00000000
33000000: global: x30=0x00000000
33000000: global: x31=0x00000000
33000000: global: f0=0x00000000
33000000: global: f1=0x4019999a
33000000: global: f2=0x00000000
33000000: global: f3=0xc2aa0000
33000000: global: f4=0x00000000
33000000: global: f5=0x00000000
33000000: global: f6=0x00000000
33000000: global: f7=0x00000000
33000000: global: f8=0x00000000
33000000: global: f9=0x00000000
33000000: global: f10=0x00000000
33000000: global: f11=0x00000000
33000000: global: f12=0x00000000
33000000: global: f13=0x00000000
33000000: global: f14=0x00000000
33000000: global: f15=0x00000000
33000000: global: f16=0x00000000
33000000: global: f17=0x00000000
33000000: global: f18=0x00000000
33000000: global: f19=0x00000000
33000000: global: f20=0x00000000
33000000: global: f21=0x00000000
33000000: global: f22=0x00000000
33000000: global: f23=0x00000000
33000000: global: f24=0x00000000
33000000: global: f25=0x00000000
33000000: global: f26=0x00000000
33000000: global: f27=0x00000000
33000000: global: f28=0x00000000
33000000: global: f29=0x00000000
33000000: global: f30=0x00000000
33000000: global: f31=0x00000000
33000000: system.cpu.memory: Log4GUI: memory: 33000000: 0: 100ec: add x12, x1, x7
33000000: system.cpu.execute: Log4GUI: execute: 33000000: 0: 100f0: flw f1, 0(x12): 0
33000000: system.cpu.decode: Log4GUI: decode: 33000000: 0: 100f4: add x12, x2, x7
33000000: system.cpu.fetch1: Log4GUI: fetch1: 33000000: 0: 100f8: <assembly>
34000000: system.cpu.writeback: Log4GUI: writeback: 34000000: 0: 100ec: add x12, x1, x7
34000000: system.cpu.writeback: REGISTERS
34000000: global: x0=0x00000000
34000000: global: x1=0x0001121c
34000000: global: x2=0x0001125c
34000000: global: x3=0x000112a1
34000000: global: x4=0xffffffab
34000000: global: x5=0x00000010
34000000: global: x6=0x00000000
34000000: global: x7=0x00000000
34000000: global: x8=0x0001129d
34000000: global: x9=0x7f800000
34000000: global: x10=0x00000000
34000000: global: x11=0x0001129c
34000000: global: x12=0x0001121c
34000000: global: x13=0x00000000
34000000: global: x14=0x00000000
34000000: global: x15=0x00000000
34000000: global: x16=0x00000000
34000000: global: x17=0x00000000
34000000: global: x18=0x00000000
34000000: global: x19=0x00000000
34000000: global: x20=0x00000000
34000000: global: x21=0x00000000
34000000: global: x22=0x00000000
34000000: global: x23=0x00000000
34000000: global: x24=0x00000000
34000000: global: x25=0x00000000
34000000: global: x26=0x00000000
34000000: global: x27=0x00000000
34000000: global: x28=0x00000000
34000000: global: x29=0x00000000
34000000: global: x30=0x00000000
34000000: global: x31=0x00000000
34000000: global: f0=0x00000000
34000000: global: f1=0x4019999a
34000000: global: f2=0x00000000
34000000: global: f3=0xc2aa0000
34000000: global: f4=0x00000000
34000000: global: f5=0x00000000
34000000: global: f6=0x00000000
34000000: global: f7=0x00000000
34000000: global: f8=0x00000000
34000000: global: f9=0x00000000
34000000: global: f10=0x00000000
34000000: global: f11=0x00000000
34000000: global: f12=0x00000000
34000000: global: f13=0x00000000
34000000: global: f14=0x00000000
34000000: global: f15=0x00000000
34000000: global: f16=0x00000000
34000000: global: f17=0x00000000
34000000: global: f18=0x00000000
34000000: global: f19=0x00000000
34000000: global: f20=0x00000000
34000000: global: f21=0x00000000
34000000: global: f22=0x00000000
34000000: global: f23=0x00000000
34000000: global: f24=0x00000000
34000000: global: f25=0x00000000
34000000: global: f26=0x00000000
34000000: global: f27=0x00000000
34000000: global: f28=0x00000000
34000000: global: f29=0x00000000
34000000: global: f30=0x00000000
34000000: global: f31=0x00000000
34000000: system.cpu.memory: Log4GUI: memory: 34000000: 0: 100f0: flw f1, 0(x12)
34000000: system.cpu.execute: Log4GUI: execute: 34000000: 0: 100f4: add x12, x2, x7: 0
34000000: system.cpu.decode: Log4GUI: decode: 34000000: 0: 100f8: flw f2, 0(x12)
34000000: system.cpu.fetch1: Log4GUI: fetch1: 34000000: 0: 100fc: <assembly>
35000000: system.cpu.writeback: Log4GUI: writeback: 35000000: 0: 100f0: flw f1, 0(x12)
35000000: system.cpu.writeback: REGISTERS
35000000: global: x0=0x00000000
35000000: global: x1=0x0001121c
35000000: global: x2=0x0001125c
35000000: global: x3=0x000112a1
35000000: global: x4=0xffffffab
35000000: global: x5=0x00000010
35000000: global: x6=0x00000000
35000000: global: x7=0x00000000
35000000: global: x8=0x0001129d
35000000: global: x9=0x7f800000
35000000: global: x10=0x00000000
35000000: global: x11=0x0001129c
35000000: global: x12=0x0001121c
35000000: global: x13=0x00000000
35000000: global: x14=0x00000000
35000000: global: x15=0x00000000
35000000: global: x16=0x00000000
35000000: global: x17=0x00000000
35000000: global: x18=0x00000000
35000000: global: x19=0x00000000
35000000: global: x20=0x00000000
35000000: global: x21=0x00000000
35000000: global: x22=0x00000000
35000000: global: x23=0x00000000
35000000: global: x24=0x00000000
35000000: global: x25=0x00000000
35000000: global: x26=0x00000000
35000000: global: x27=0x00000000
35000000: global: x28=0x00000000
35000000: global: x29=0x00000000
35000000: global: x30=0x00000000
35000000: global: x31=0x00000000
35000000: global: f0=0x00000000
35000000: global: f1=0x40933333
35000000: global: f2=0x00000000
35000000: global: f3=0xc2aa0000
35000000: global: f4=0x00000000
35000000: global: f5=0x00000000
35000000: global: f6=0x00000000
35000000: global: f7=0x00000000
35000000: global: f8=0x00000000
35000000: global: f9=0x00000000
35000000: global: f10=0x00000000
35000000: global: f11=0x00000000
35000000: global: f12=0x00000000
35000000: global: f13=0x00000000
35000000: global: f14=0x00000000
35000000: global: f15=0x00000000
35000000: global: f16=0x00000000
35000000: global: f17=0x00000000
35000000: global: f18=0x00000000
35000000: global: f19=0x00000000
35000000: global: f20=0x00000000
35000000: global: f21=0x00000000
35000000: global: f22=0x00000000
35000000: global: f23=0x00000000
35000000: global: f24=0x00000000
35000000: global: f25=0x00000000
35000000: global: f26=0x00000000
35000000: global: f27=0x00000000
35000000: global: f28=0x00000000
35000000: global: f29=0x00000000
35000000: global: f30=0x00000000
35000000: global: f31=0x00000000
35000000: system.cpu.memory: Log4GUI: memory: 35000000: 0: 100f4: add x12, x2, x7
35000000: system.cpu.execute: Log4GUI: execute: 35000000: 0: 100f8: flw f2, 0(x12): 0
35000000: system.cpu.decode: Log4GUI: decode: 35000000: 0: 100fc: addi x6, x6, 1
35000000: system.cpu.fetch1: Log4GUI: fetch1: 35000000: 0: 10100: <assembly>
36000000: system.cpu.writeback: Log4GUI: writeback: 36000000: 0: 100f4: add x12, x2, x7
36000000: system.cpu.writeback: REGISTERS
36000000: global: x0=0x00000000
36000000: global: x1=0x0001121c
36000000: global: x2=0x0001125c
36000000: global: x3=0x000112a1
36000000: global: x4=0xffffffab
36000000: global: x5=0x00000010
36000000: global: x6=0x00000000
36000000: global: x7=0x00000000
36000000: global: x8=0x0001129d
36000000: global: x9=0x7f800000
36000000: global: x10=0x00000000
36000000: global: x11=0x0001129c
36000000: global: x12=0x0001125c
36000000: global: x13=0x00000000
36000000: global: x14=0x00000000
36000000: global: x15=0x00000000
36000000: global: x16=0x00000000
36000000: global: x17=0x00000000
36000000: global: x18=0x00000000
36000000: global: x19=0x00000000
36000000: global: x20=0x00000000
36000000: global: x21=0x00000000
36000000: global: x22=0x00000000
36000000: global: x23=0x00000000
36000000: global: x24=0x00000000
36000000: global: x25=0x00000000
36000000: global: x26=0x00000000
36000000: global: x27=0x00000000
36000000: global: x28=0x00000000
36000000: global: x29=0x00000000
36000000: global: x30=0x00000000
36000000: global: x31=0x00000000
36000000: global: f0=0x00000000
36000000: global: f1=0x40933333
36000000: global: f2=0x00000000
36000000: global: f3=0xc2aa0000
36000000: global: f4=0x00000000
36000000: global: f5=0x00000000
36000000: global: f6=0x00000000
36000000: global: f7=0x00000000
36000000: global: f8=0x00000000
36000000: global: f9=0x00000000
36000000: global: f10=0x00000000
36000000: global: f11=0x00000000
36000000: global: f12=0x00000000
36000000: global: f13=0x00000000
36000000: global: f14=0x00000000
36000000: global: f15=0x00000000
36000000: global: f16=0x00000000
36000000: global: f17=0x00000000
36000000: global: f18=0x00000000
36000000: global: f19=0x00000000
36000000: global: f20=0x00000000
36000000: global: f21=0x00000000
36000000: global: f22=0x00000000
36000000: global: f23=0x00000000
36000000: global: f24=0x00000000
36000000: global: f25=0x00000000
36000000: global: f26=0x00000000
36000000: global: f27=0x00000000
36000000: global: f28=0x00000000
36000000: global: f29=0x00000000
36000000: global: f30=0x00000000
36000000: global: f31=0x00000000
36000000: system.cpu.memory: Log4GUI: memory: 36000000: 0: 100f8: flw f2, 0(x12)
36000000: system.cpu.execute: Log4GUI: execute: 36000000: 0: 100fc: addi x6, x6, 1: 0
36000000: system.cpu.decode: Log4GUI: decode: 36000000: 0: 10100: slli x7, x6, 2
36000000: system.cpu.fetch1: Log4GUI: fetch1: 36000000: 0: 10104: <assembly>
37000000: system.cpu.writeback: Log4GUI: writeback: 37000000: 0: 100f8: flw f2, 0(x12)
37000000: system.cpu.writeback: REGISTERS
37000000: global: x0=0x00000000
37000000: global: x1=0x0001121c
37000000: global: x2=0x0001125c
37000000: global: x3=0x000112a1
37000000: global: x4=0xffffffab
37000000: global: x5=0x00000010
37000000: global: x6=0x00000000
37000000: global: x7=0x00000000
37000000: global: x8=0x0001129d
37000000: global: x9=0x7f800000
37000000: global: x10=0x00000000
37000000: global: x11=0x0001129c
37000000: global: x12=0x0001125c
37000000: global: x13=0x00000000
37000000: global: x14=0x00000000
37000000: global: x15=0x00000000
37000000: global: x16=0x00000000
37000000: global: x17=0x00000000
37000000: global: x18=0x00000000
37000000: global: x19=0x00000000
37000000: global: x20=0x00000000
37000000: global: x21=0x00000000
37000000: global: x22=0x00000000
37000000: global: x23=0x00000000
37000000: global: x24=0x00000000
37000000: global: x25=0x00000000
37000000: global: x26=0x00000000
37000000: global: x27=0x00000000
37000000: global: x28=0x00000000
37000000: global: x29=0x00000000
37000000: global: x30=0x00000000
37000000: global: x31=0x00000000
37000000: global: f0=0x00000000
37000000: global: f1=0x40933333
37000000: global: f2=0x4019999a
37000000: global: f3=0xc2aa0000
37000000: global: f4=0x00000000
37000000: global: f5=0x00000000
37000000: global: f6=0x00000000
37000000: global: f7=0x00000000
37000000: global: f8=0x00000000
37000000: global: f9=0x00000000
37000000: global: f10=0x00000000
37000000: global: f11=0x00000000
37000000: global: f12=0x00000000
37000000: global: f13=0x00000000
37000000: global: f14=0x00000000
37000000: global: f15=0x00000000
37000000: global: f16=0x00000000
37000000: global: f17=0x00000000
37000000: global: f18=0x00000000
37000000: global: f19=0x00000000
37000000: global: f20=0x00000000
37000000: global: f21=0x00000000
37000000: global: f22=0x00000000
37000000: global: f23=0x00000000
37000000: global: f24=0x00000000
37000000: global: f25=0x00000000
37000000: global: f26=0x00000000
37000000: global: f27=0x00000000
37000000: global: f28=0x00000000
37000000: global: f29=0x00000000
37000000: global: f30=0x00000000
37000000: global: f31=0x00000000
37000000: system.cpu.memory: Log4GUI: memory: 37000000: 0: 100fc: addi x6, x6, 1
37000000: system.cpu.execute: Log4GUI: execute: 37000000: 0: 10100: slli x7, x6, 2: 0
37000000: system.cpu.decode: Log4GUI: decode: 37000000: 0: 10104: add x12, x1, x7
37000000: system.cpu.fetch1: Log4GUI: fetch1: 37000000: 0: 10108: <assembly>
38000000: system.cpu.writeback: Log4GUI: writeback: 38000000: 0: 100fc: addi x6, x6, 1
38000000: system.cpu.writeback: REGISTERS
38000000: global: x0=0x00000000
38000000: global: x1=0x0001121c
38000000: global: x2=0x0001125c
38000000: global: x3=0x000112a1
38000000: global: x4=0xffffffab
38000000: global: x5=0x00000010
38000000: global: x6=0x00000001
38000000: global: x7=0x00000000
38000000: global: x8=0x0001129d
38000000: global: x9=0x7f800000
38000000: global: x10=0x00000000
38000000: global: x11=0x0001129c
38000000: global: x12=0x0001125c
38000000: global: x13=0x00000000
38000000: global: x14=0x00000000
38000000: global: x15=0x00000000
38000000: global: x16=0x00000000
38000000: global: x17=0x00000000
38000000: global: x18=0x00000000
38000000: global: x19=0x00000000
38000000: global: x20=0x00000000
38000000: global: x21=0x00000000
38000000: global: x22=0x00000000
38000000: global: x23=0x00000000
38000000: global: x24=0x00000000
38000000: global: x25=0x00000000
38000000: global: x26=0x00000000
38000000: global: x27=0x00000000
38000000: global: x28=0x00000000
38000000: global: x29=0x00000000
38000000: global: x30=0x00000000
38000000: global: x31=0x00000000
38000000: global: f0=0x00000000
38000000: global: f1=0x40933333
38000000: global: f2=0x4019999a
38000000: global: f3=0xc2aa0000
38000000: global: f4=0x00000000
38000000: global: f5=0x00000000
38000000: global: f6=0x00000000
38000000: global: f7=0x00000000
38000000: global: f8=0x00000000
38000000: global: f9=0x00000000
38000000: global: f10=0x00000000
38000000: global: f11=0x00000000
38000000: global: f12=0x00000000
38000000: global: f13=0x00000000
38000000: global: f14=0x00000000
38000000: global: f15=0x00000000
38000000: global: f16=0x00000000
38000000: global: f17=0x00000000
38000000: global: f18=0x00000000
38000000: global: f19=0x00000000
38000000: global: f20=0x00000000
38000000: global: f21=0x00000000
38000000: global: f22=0x00000000
38000000: global: f23=0x00000000
38000000: global: f24=0x00000000
38000000: global: f25=0x00000000
38000000: global: f26=0x00000000
38000000: global: f27=0x00000000
38000000: global: f28=0x00000000
38000000: global: f29=0x00000000
38000000: global: f30=0x00000000
38000000: global: f31=0x00000000
38000000: system.cpu.memory: Log4GUI: memory: 38000000: 0: 10100: slli x7, x6, 2
38000000: system.cpu.execute: Log4GUI: execute: 38000000: 0: 10104: add x12, x1, x7: 0
38000000: system.cpu.decode: Log4GUI: decode: 38000000: 0: 10108: flw f6, 0(x12)
38000000: system.cpu.fetch1: Log4GUI: fetch1: 38000000: 0: 1010c: <assembly>
39000000: system.cpu.writeback: Log4GUI: writeback: 39000000: 0: 10100: slli x7, x6, 2
39000000: system.cpu.writeback: REGISTERS
39000000: global: x0=0x00000000
39000000: global: x1=0x0001121c
39000000: global: x2=0x0001125c
39000000: global: x3=0x000112a1
39000000: global: x4=0xffffffab
39000000: global: x5=0x00000010
39000000: global: x6=0x00000001
39000000: global: x7=0x00000004
39000000: global: x8=0x0001129d
39000000: global: x9=0x7f800000
39000000: global: x10=0x00000000
39000000: global: x11=0x0001129c
39000000: global: x12=0x0001125c
39000000: global: x13=0x00000000
39000000: global: x14=0x00000000
39000000: global: x15=0x00000000
39000000: global: x16=0x00000000
39000000: global: x17=0x00000000
39000000: global: x18=0x00000000
39000000: global: x19=0x00000000
39000000: global: x20=0x00000000
39000000: global: x21=0x00000000
39000000: global: x22=0x00000000
39000000: global: x23=0x00000000
39000000: global: x24=0x00000000
39000000: global: x25=0x00000000
39000000: global: x26=0x00000000
39000000: global: x27=0x00000000
39000000: global: x28=0x00000000
39000000: global: x29=0x00000000
39000000: global: x30=0x00000000
39000000: global: x31=0x00000000
39000000: global: f0=0x00000000
39000000: global: f1=0x40933333
39000000: global: f2=0x4019999a
39000000: global: f3=0xc2aa0000
39000000: global: f4=0x00000000
39000000: global: f5=0x00000000
39000000: global: f6=0x00000000
39000000: global: f7=0x00000000
39000000: global: f8=0x00000000
39000000: global: f9=0x00000000
39000000: global: f10=0x00000000
39000000: global: f11=0x00000000
39000000: global: f12=0x00000000
39000000: global: f13=0x00000000
39000000: global: f14=0x00000000
39000000: global: f15=0x00000000
39000000: global: f16=0x00000000
39000000: global: f17=0x00000000
39000000: global: f18=0x00000000
39000000: global: f19=0x00000000
39000000: global: f20=0x00000000
39000000: global: f21=0x00000000
39000000: global: f22=0x00000000
39000000: global: f23=0x00000000
39000000: global: f24=0x00000000
39000000: global: f25=0x00000000
39000000: global: f26=0x00000000
39000000: global: f27=0x00000000
39000000: global: f28=0x00000000
39000000: global: f29=0x00000000
39000000: global: f30=0x00000000
39000000: global: f31=0x00000000
39000000: system.cpu.memory: Log4GUI: memory: 39000000: 0: 10104: add x12, x1, x7
39000000: system.cpu.execute: Log4GUI: execute: 39000000: 0: 10108: flw f6, 0(x12): 0
39000000: system.cpu.decode: Log4GUI: decode: 39000000: 0: 1010c: add x12, x2, x7
39000000: system.cpu.fetch1: Log4GUI: fetch1: 39000000: 0: 10110: <assembly>
40000000: system.cpu.writeback: Log4GUI: writeback: 40000000: 0: 10104: add x12, x1, x7
40000000: system.cpu.writeback: REGISTERS
40000000: global: x0=0x00000000
40000000: global: x1=0x0001121c
40000000: global: x2=0x0001125c
40000000: global: x3=0x000112a1
40000000: global: x4=0xffffffab
40000000: global: x5=0x00000010
40000000: global: x6=0x00000001
40000000: global: x7=0x00000004
40000000: global: x8=0x0001129d
40000000: global: x9=0x7f800000
40000000: global: x10=0x00000000
40000000: global: x11=0x0001129c
40000000: global: x12=0x00011220
40000000: global: x13=0x00000000
40000000: global: x14=0x00000000
40000000: global: x15=0x00000000
40000000: global: x16=0x00000000
40000000: global: x17=0x00000000
40000000: global: x18=0x00000000
40000000: global: x19=0x00000000
40000000: global: x20=0x00000000
40000000: global: x21=0x00000000
40000000: global: x22=0x00000000
40000000: global: x23=0x00000000
40000000: global: x24=0x00000000
40000000: global: x25=0x00000000
40000000: global: x26=0x00000000
40000000: global: x27=0x00000000
40000000: global: x28=0x00000000
40000000: global: x29=0x00000000
40000000: global: x30=0x00000000
40000000: global: x31=0x00000000
40000000: global: f0=0x00000000
40000000: global: f1=0x40933333
40000000: global: f2=0x4019999a
40000000: global: f3=0xc2aa0000
40000000: global: f4=0x00000000
40000000: global: f5=0x00000000
40000000: global: f6=0x00000000
40000000: global: f7=0x00000000
40000000: global: f8=0x00000000
40000000: global: f9=0x00000000
40000000: global: f10=0x00000000
40000000: global: f11=0x00000000
40000000: global: f12=0x00000000
40000000: global: f13=0x00000000
40000000: global: f14=0x00000000
40000000: global: f15=0x00000000
40000000: global: f16=0x00000000
40000000: global: f17=0x00000000
40000000: global: f18=0x00000000
40000000: global: f19=0x00000000
40000000: global: f20=0x00000000
40000000: global: f21=0x00000000
40000000: global: f22=0x00000000
40000000: global: f23=0x00000000
40000000: global: f24=0x00000000
40000000: global: f25=0x00000000
40000000: global: f26=0x00000000
40000000: global: f27=0x00000000
40000000: global: f28=0x00000000
40000000: global: f29=0x00000000
40000000: global: f30=0x00000000
40000000: global: f31=0x00000000
40000000: system.cpu.memory: Log4GUI: memory: 40000000: 0: 10108: flw f6, 0(x12)
40000000: system.cpu.execute: Log4GUI: execute: 40000000: 0: 1010c: add x12, x2, x7: 0
40000000: system.cpu.decode: Log4GUI: decode: 40000000: 0: 10110: flw f7, 0(x12)
40000000: system.cpu.fetch1: Log4GUI: fetch1: 40000000: 0: 10114: <assembly>
41000000: system.cpu.writeback: Log4GUI: writeback: 41000000: 0: 10108: flw f6, 0(x12)
41000000: system.cpu.writeback: REGISTERS
41000000: global: x0=0x00000000
41000000: global: x1=0x0001121c
41000000: global: x2=0x0001125c
41000000: global: x3=0x000112a1
41000000: global: x4=0xffffffab
41000000: global: x5=0x00000010
41000000: global: x6=0x00000001
41000000: global: x7=0x00000004
41000000: global: x8=0x0001129d
41000000: global: x9=0x7f800000
41000000: global: x10=0x00000000
41000000: global: x11=0x0001129c
41000000: global: x12=0x00011220
41000000: global: x13=0x00000000
41000000: global: x14=0x00000000
41000000: global: x15=0x00000000
41000000: global: x16=0x00000000
41000000: global: x17=0x00000000
41000000: global: x18=0x00000000
41000000: global: x19=0x00000000
41000000: global: x20=0x00000000
41000000: global: x21=0x00000000
41000000: global: x22=0x00000000
41000000: global: x23=0x00000000
41000000: global: x24=0x00000000
41000000: global: x25=0x00000000
41000000: global: x26=0x00000000
41000000: global: x27=0x00000000
41000000: global: x28=0x00000000
41000000: global: x29=0x00000000
41000000: global: x30=0x00000000
41000000: global: x31=0x00000000
41000000: global: f0=0x00000000
41000000: global: f1=0x40933333
41000000: global: f2=0x4019999a
41000000: global: f3=0xc2aa0000
41000000: global: f4=0x00000000
41000000: global: f5=0x00000000
41000000: global: f6=0x3f8ccccd
41000000: global: f7=0x00000000
41000000: global: f8=0x00000000
41000000: global: f9=0x00000000
41000000: global: f10=0x00000000
41000000: global: f11=0x00000000
41000000: global: f12=0x00000000
41000000: global: f13=0x00000000
41000000: global: f14=0x00000000
41000000: global: f15=0x00000000
41000000: global: f16=0x00000000
41000000: global: f17=0x00000000
41000000: global: f18=0x00000000
41000000: global: f19=0x00000000
41000000: global: f20=0x00000000
41000000: global: f21=0x00000000
41000000: global: f22=0x00000000
41000000: global: f23=0x00000000
41000000: global: f24=0x00000000
41000000: global: f25=0x00000000
41000000: global: f26=0x00000000
41000000: global: f27=0x00000000
41000000: global: f28=0x00000000
41000000: global: f29=0x00000000
41000000: global: f30=0x00000000
41000000: global: f31=0x00000000
41000000: system.cpu.memory: Log4GUI: memory: 41000000: 0: 1010c: add x12, x2, x7
41000000: system.cpu.execute: Log4GUI: execute: 41000000: 0: 10110: flw f7, 0(x12): 0
41000000: system.cpu.decode: Log4GUI: decode: 41000000: 0: 10114: addi x6, x6, 1
41000000: system.cpu.fetch1: Log4GUI: fetch1: 41000000: 0: 10118: <assembly>
42000000: system.cpu.writeback: Log4GUI: writeback: 42000000: 0: 1010c: add x12, x2, x7
42000000: system.cpu.writeback: REGISTERS
42000000: global: x0=0x00000000
42000000: global: x1=0x0001121c
42000000: global: x2=0x0001125c
42000000: global: x3=0x000112a1
42000000: global: x4=0xffffffab
42000000: global: x5=0x00000010
42000000: global: x6=0x00000001
42000000: global: x7=0x00000004
42000000: global: x8=0x0001129d
42000000: global: x9=0x7f800000
42000000: global: x10=0x00000000
42000000: global: x11=0x0001129c
42000000: global: x12=0x00011260
42000000: global: x13=0x00000000
42000000: global: x14=0x00000000
42000000: global: x15=0x00000000
42000000: global: x16=0x00000000
42000000: global: x17=0x00000000
42000000: global: x18=0x00000000
42000000: global: x19=0x00000000
[...]
220000000: system.cpu.decode: Log4GUI: decode: 220000000: 1: 101f4: fmv_x_w x10, f4
220000000: system.cpu.fetch1: Log4GUI: fetch1: 220000000: 1: 101f8: <assembly>
221000000: system.cpu.execute: Log4GUI: execute: 221000000: 0: 101f0: fadd_s f4, f3, f4: 3
221000000: system.cpu.decode: Log4GUI: decode: 221000000: 1: 101f4: fmv_x_w x10, f4
221000000: system.cpu.fetch1: Log4GUI: fetch1: 221000000: 1: 101f8: <assembly>
222000000: system.cpu.memory: Log4GUI: memory: 222000000: 0: 101f0: fadd_s f4, f3, f4
222000000: system.cpu.execute: Log4GUI: execute: 222000000: 0: 101f4: fmv_x_w x10, f4: 3
222000000: system.cpu.decode: Log4GUI: decode: 222000000: 0: 101f8: fsw f4, 0(x11)
222000000: system.cpu.fetch1: Log4GUI: fetch1: 222000000: 0: 101fc: <assembly>
223000000: system.cpu.writeback: Log4GUI: writeback: 223000000: 0: 101f0: fadd_s f4, f3, f4
223000000: system.cpu.writeback: REGISTERS
223000000: global: x0=0x00000000
223000000: global: x1=0x0001121c
223000000: global: x2=0x0001125c
223000000: global: x3=0x000112a1
223000000: global: x4=0xffffffab
223000000: global: x5=0x00000010
223000000: global: x6=0x00000010
223000000: global: x7=0x00000040
223000000: global: x8=0x0001129d
223000000: global: x9=0x7f800000
223000000: global: x10=0x00000000
223000000: global: x11=0x0001129c
223000000: global: x12=0x00011298
223000000: global: x13=0x00000000
223000000: global: x14=0x00000000
223000000: global: x15=0x00000000
223000000: global: x16=0x00000000
223000000: global: x17=0x00000000
223000000: global: x18=0x00000000
223000000: global: x19=0x00000000
223000000: global: x20=0x00000000
223000000: global: x21=0x00000000
223000000: global: x22=0x00000000
223000000: global: x23=0x00000000
223000000: global: x24=0x00000000
223000000: global: x25=0x00000000
223000000: global: x26=0x00000000
223000000: global: x27=0x00000000
223000000: global: x28=0x00000000
223000000: global: x29=0x00000000
223000000: global: x30=0x00000000
223000000: global: x31=0x00000000
223000000: global: f0=0x00000000
223000000: global: f1=0x40f00000
223000000: global: f2=0x404ccccd
223000000: global: f3=0xc2aa0000
223000000: global: f4=0xc2740000
223000000: global: f5=0x43bdf47b
223000000: global: f6=0x4101999a
223000000: global: f7=0x40b00000
223000000: global: f8=0x42323334
223000000: global: f9=0x40e9999a
223000000: global: f10=0x40933333
223000000: global: f11=0x420651ec
223000000: global: f12=0x4079999a
223000000: global: f13=0x40966666
223000000: global: f14=0x4192a3d7
223000000: global: f15=0x4079999a
223000000: global: f16=0x4119999a
223000000: global: f17=0x4215c290
223000000: global: f18=0x4079999a
223000000: global: f19=0x40133333
223000000: global: f20=0x410f851f
223000000: global: f21=0x40b00000
223000000: global: f22=0x3fcccccd
223000000: global: f23=0x410ccccd
223000000: global: f24=0x4101999a
223000000: global: f25=0x3f800000
223000000: global: f26=0x4101999a
223000000: global: f27=0x00000000
223000000: global: f28=0x00000000
223000000: global: f29=0x00000000
223000000: global: f30=0x00000000
223000000: global: f31=0x00000000
223000000: system.cpu.execute: Log4GUI: execute: 223000000: 0: 101f8: fsw f4, 0(x11): 0
223000000: system.cpu.execute: Log4GUI: execute: 223000000: 0: 101f4: fmv_x_w x10, f4: 3
223000000: system.cpu.decode: Log4GUI: decode: 223000000: 0: 101fc: and x10, x10, x9
223000000: system.cpu.fetch1: Log4GUI: fetch1: 223000000: 0: 10200: <assembly>
224000000: system.cpu.memory: Log4GUI: memory: 224000000: 0: 101f8: fsw f4, 0(x11)
224000000: system.cpu.execute: Log4GUI: execute: 224000000: 0: 101f4: fmv_x_w x10, f4: 3
224000000: system.cpu.decode: Log4GUI: decode: 224000000: 1: 101fc: and x10, x10, x9
224000000: system.cpu.fetch1: Log4GUI: fetch1: 224000000: 1: 10200: <assembly>
225000000: system.cpu.writeback: Log4GUI: writeback: 225000000: 0: 101f8: fsw f4, 0(x11)
225000000: system.cpu.writeback: REGISTERS
225000000: global: x0=0x00000000
225000000: global: x1=0x0001121c
225000000: global: x2=0x0001125c
225000000: global: x3=0x000112a1
225000000: global: x4=0xffffffab
225000000: global: x5=0x00000010
225000000: global: x6=0x00000010
225000000: global: x7=0x00000040
225000000: global: x8=0x0001129d
225000000: global: x9=0x7f800000
225000000: global: x10=0x00000000
225000000: global: x11=0x0001129c
225000000: global: x12=0x00011298
225000000: global: x13=0x00000000
225000000: global: x14=0x00000000
225000000: global: x15=0x00000000
225000000: global: x16=0x00000000
225000000: global: x17=0x00000000
225000000: global: x18=0x00000000
225000000: global: x19=0x00000000
225000000: global: x20=0x00000000
225000000: global: x21=0x00000000
225000000: global: x22=0x00000000
225000000: global: x23=0x00000000
225000000: global: x24=0x00000000
225000000: global: x25=0x00000000
225000000: global: x26=0x00000000
225000000: global: x27=0x00000000
225000000: global: x28=0x00000000
225000000: global: x29=0x00000000
225000000: global: x30=0x00000000
225000000: global: x31=0x00000000
225000000: global: f0=0x00000000
225000000: global: f1=0x40f00000
225000000: global: f2=0x404ccccd
225000000: global: f3=0xc2aa0000
225000000: global: f4=0xc2740000
225000000: global: f5=0x43bdf47b
225000000: global: f6=0x4101999a
225000000: global: f7=0x40b00000
225000000: global: f8=0x42323334
225000000: global: f9=0x40e9999a
225000000: global: f10=0x40933333
225000000: global: f11=0x420651ec
225000000: global: f12=0x4079999a
225000000: global: f13=0x40966666
225000000: global: f14=0x4192a3d7
225000000: global: f15=0x4079999a
225000000: global: f16=0x4119999a
225000000: global: f17=0x4215c290
225000000: global: f18=0x4079999a
225000000: global: f19=0x40133333
225000000: global: f20=0x410f851f
225000000: global: f21=0x40b00000
225000000: global: f22=0x3fcccccd
225000000: global: f23=0x410ccccd
225000000: global: f24=0x4101999a
225000000: global: f25=0x3f800000
225000000: global: f26=0x4101999a
225000000: global: f27=0x00000000
225000000: global: f28=0x00000000
225000000: global: f29=0x00000000
225000000: global: f30=0x00000000
225000000: global: f31=0x00000000
225000000: system.cpu.execute: Log4GUI: execute: 225000000: 0: 101f4: fmv_x_w x10, f4: 3
225000000: system.cpu.decode: Log4GUI: decode: 225000000: 1: 101fc: and x10, x10, x9
225000000: system.cpu.fetch1: Log4GUI: fetch1: 225000000: 1: 10200: <assembly>
226000000: system.cpu.memory: Log4GUI: memory: 226000000: 0: 101f4: fmv_x_w x10, f4
226000000: system.cpu.execute: Log4GUI: execute: 226000000: 0: 101fc: and x10, x10, x9: 0
226000000: system.cpu.fetch1: Log4GUI: fetch1: 226000000: 1: 10200: <assembly>
227000000: system.cpu.writeback: Log4GUI: writeback: 227000000: 0: 101f4: fmv_x_w x10, f4
227000000: system.cpu.writeback: REGISTERS
227000000: global: x0=0x00000000
227000000: global: x1=0x0001121c
227000000: global: x2=0x0001125c
227000000: global: x3=0x000112a1
227000000: global: x4=0xffffffab
227000000: global: x5=0x00000010
227000000: global: x6=0x00000010
227000000: global: x7=0x00000040
227000000: global: x8=0x0001129d
227000000: global: x9=0x7f800000
227000000: global: x10=0xc2740000
227000000: global: x11=0x0001129c
227000000: global: x12=0x00011298
227000000: global: x13=0x00000000
227000000: global: x14=0x00000000
227000000: global: x15=0x00000000
227000000: global: x16=0x00000000
227000000: global: x17=0x00000000
227000000: global: x18=0x00000000
227000000: global: x19=0x00000000
227000000: global: x20=0x00000000
227000000: global: x21=0x00000000
227000000: global: x22=0x00000000
227000000: global: x23=0x00000000
227000000: global: x24=0x00000000
227000000: global: x25=0x00000000
227000000: global: x26=0x00000000
227000000: global: x27=0x00000000
227000000: global: x28=0x00000000
227000000: global: x29=0x00000000
227000000: global: x30=0x00000000
227000000: global: x31=0x00000000
227000000: global: f0=0x00000000
227000000: global: f1=0x40f00000
227000000: global: f2=0x404ccccd
227000000: global: f3=0xc2aa0000
227000000: global: f4=0xc2740000
227000000: global: f5=0x43bdf47b
227000000: global: f6=0x4101999a
227000000: global: f7=0x40b00000
227000000: global: f8=0x42323334
227000000: global: f9=0x40e9999a
227000000: global: f10=0x40933333
227000000: global: f11=0x420651ec
227000000: global: f12=0x4079999a
227000000: global: f13=0x40966666
227000000: global: f14=0x4192a3d7
227000000: global: f15=0x4079999a
227000000: global: f16=0x4119999a
227000000: global: f17=0x4215c290
227000000: global: f18=0x4079999a
227000000: global: f19=0x40133333
227000000: global: f20=0x410f851f
227000000: global: f21=0x40b00000
227000000: global: f22=0x3fcccccd
227000000: global: f23=0x410ccccd
227000000: global: f24=0x4101999a
227000000: global: f25=0x3f800000
227000000: global: f26=0x4101999a
227000000: global: f27=0x00000000
227000000: global: f28=0x00000000
227000000: global: f29=0x00000000
227000000: global: f30=0x00000000
227000000: global: f31=0x00000000
227000000: system.cpu.memory: Log4GUI: memory: 227000000: 0: 101fc: and x10, x10, x9
227000000: system.cpu.decode: Log4GUI: decode: 227000000: 0: 10200: beq x10, x9, 8
227000000: system.cpu.fetch1: Log4GUI: fetch1: 227000000: 0: 10204: <assembly>
228000000: system.cpu.writeback: Log4GUI: writeback: 228000000: 0: 101fc: and x10, x10, x9
228000000: system.cpu.writeback: REGISTERS
228000000: global: x0=0x00000000
228000000: global: x1=0x0001121c
228000000: global: x2=0x0001125c
228000000: global: x3=0x000112a1
228000000: global: x4=0xffffffab
228000000: global: x5=0x00000010
228000000: global: x6=0x00000010
228000000: global: x7=0x00000040
228000000: global: x8=0x0001129d
228000000: global: x9=0x7f800000
228000000: global: x10=0x42000000
228000000: global: x11=0x0001129c
228000000: global: x12=0x00011298
228000000: global: x13=0x00000000
228000000: global: x14=0x00000000
228000000: global: x15=0x00000000
228000000: global: x16=0x00000000
228000000: global: x17=0x00000000
228000000: global: x18=0x00000000
228000000: global: x19=0x00000000
228000000: global: x20=0x00000000
228000000: global: x21=0x00000000
228000000: global: x22=0x00000000
228000000: global: x23=0x00000000
228000000: global: x24=0x00000000
228000000: global: x25=0x00000000
228000000: global: x26=0x00000000
228000000: global: x27=0x00000000
228000000: global: x28=0x00000000
228000000: global: x29=0x00000000
228000000: global: x30=0x00000000
228000000: global: x31=0x00000000
228000000: global: f0=0x00000000
228000000: global: f1=0x40f00000
228000000: global: f2=0x404ccccd
228000000: global: f3=0xc2aa0000
228000000: global: f4=0xc2740000
228000000: global: f5=0x43bdf47b
228000000: global: f6=0x4101999a
228000000: global: f7=0x40b00000
228000000: global: f8=0x42323334
228000000: global: f9=0x40e9999a
228000000: global: f10=0x40933333
228000000: global: f11=0x420651ec
228000000: global: f12=0x4079999a
228000000: global: f13=0x40966666
228000000: global: f14=0x4192a3d7
228000000: global: f15=0x4079999a
228000000: global: f16=0x4119999a
228000000: global: f17=0x4215c290
228000000: global: f18=0x4079999a
228000000: global: f19=0x40133333
228000000: global: f20=0x410f851f
228000000: global: f21=0x40b00000
228000000: global: f22=0x3fcccccd
228000000: global: f23=0x410ccccd
228000000: global: f24=0x4101999a
228000000: global: f25=0x3f800000
228000000: global: f26=0x4101999a
228000000: global: f27=0x00000000
228000000: global: f28=0x00000000
228000000: global: f29=0x00000000
228000000: global: f30=0x00000000
228000000: global: f31=0x00000000
228000000: system.cpu.execute: Log4GUI: execute: 228000000: 0: 10200: beq x10, x9, 8: 0
228000000: system.cpu.decode: Log4GUI: decode: 228000000: 0: 10204: jal x0, 12
228000000: system.cpu.fetch1: Log4GUI: fetch1: 228000000: 0: 10208: <assembly>
229000000: system.cpu.memory: Log4GUI: memory: 229000000: 0: 10200: beq x10, x9, 8
229000000: system.cpu.execute: Log4GUI: execute: 229000000: 0: 10204: jal x0, 12: 0
229000000: system.cpu.fetch1: Log4GUI: fetch1: 229000000: 0: 10210: <assembly>
230000000: system.cpu.writeback: Log4GUI: writeback: 230000000: 0: 10200: beq x10, x9, 8
230000000: system.cpu.writeback: REGISTERS
230000000: global: x0=0x00000000
230000000: global: x1=0x0001121c
230000000: global: x2=0x0001125c
230000000: global: x3=0x000112a1
230000000: global: x4=0xffffffab
230000000: global: x5=0x00000010
230000000: global: x6=0x00000010
230000000: global: x7=0x00000040
230000000: global: x8=0x0001129d
230000000: global: x9=0x7f800000
230000000: global: x10=0x42000000
230000000: global: x11=0x0001129c
230000000: global: x12=0x00011298
230000000: global: x13=0x00000000
230000000: global: x14=0x00000000
230000000: global: x15=0x00000000
230000000: global: x16=0x00000000
230000000: global: x17=0x00000000
230000000: global: x18=0x00000000
230000000: global: x19=0x00000000
230000000: global: x20=0x00000000
230000000: global: x21=0x00000000
230000000: global: x22=0x00000000
230000000: global: x23=0x00000000
230000000: global: x24=0x00000000
230000000: global: x25=0x00000000
230000000: global: x26=0x00000000
230000000: global: x27=0x00000000
230000000: global: x28=0x00000000
230000000: global: x29=0x00000000
230000000: global: x30=0x00000000
230000000: global: x31=0x00000000
230000000: global: f0=0x00000000
230000000: global: f1=0x40f00000
230000000: global: f2=0x404ccccd
230000000: global: f3=0xc2aa0000
230000000: global: f4=0xc2740000
230000000: global: f5=0x43bdf47b
230000000: global: f6=0x4101999a
230000000: global: f7=0x40b00000
230000000: global: f8=0x42323334
230000000: global: f9=0x40e9999a
230000000: global: f10=0x40933333
230000000: global: f11=0x420651ec
230000000: global: f12=0x4079999a
230000000: global: f13=0x40966666
230000000: global: f14=0x4192a3d7
230000000: global: f15=0x4079999a
230000000: global: f16=0x4119999a
230000000: global: f17=0x4215c290
230000000: global: f18=0x4079999a
230000000: global: f19=0x40133333
230000000: global: f20=0x410f851f
230000000: global: f21=0x40b00000
230000000: global: f22=0x3fcccccd
230000000: global: f23=0x410ccccd
230000000: global: f24=0x4101999a
230000000: global: f25=0x3f800000
230000000: global: f26=0x4101999a
230000000: global: f27=0x00000000
230000000: global: f28=0x00000000
230000000: global: f29=0x00000000
230000000: global: f30=0x00000000
230000000: global: f31=0x00000000
230000000: system.cpu.memory: Log4GUI: memory: 230000000: 0: 10204: jal x0, 12
230000000: system.cpu.decode: Log4GUI: decode: 230000000: 0: 10210: addi x10, x0, 0
230000000: system.cpu.fetch1: Log4GUI: fetch1: 230000000: 0: 10214: <assembly>
231000000: system.cpu.writeback: Log4GUI: writeback: 231000000: 0: 10204: jal x0, 12
231000000: system.cpu.writeback: REGISTERS
231000000: global: x0=0x00000000
231000000: global: x1=0x0001121c
231000000: global: x2=0x0001125c
231000000: global: x3=0x000112a1
231000000: global: x4=0xffffffab
231000000: global: x5=0x00000010
231000000: global: x6=0x00000010
231000000: global: x7=0x00000040
231000000: global: x8=0x0001129d
231000000: global: x9=0x7f800000
231000000: global: x10=0x42000000
231000000: global: x11=0x0001129c
231000000: global: x12=0x00011298
231000000: global: x13=0x00000000
231000000: global: x14=0x00000000
231000000: global: x15=0x00000000
231000000: global: x16=0x00000000
231000000: global: x17=0x00000000
231000000: global: x18=0x00000000
231000000: global: x19=0x00000000
231000000: global: x20=0x00000000
231000000: global: x21=0x00000000
231000000: global: x22=0x00000000
231000000: global: x23=0x00000000
231000000: global: x24=0x00000000
231000000: global: x25=0x00000000
231000000: global: x26=0x00000000
231000000: global: x27=0x00000000
231000000: global: x28=0x00000000
231000000: global: x29=0x00000000
231000000: global: x30=0x00000000
231000000: global: x31=0x00000000
231000000: global: f0=0x00000000
231000000: global: f1=0x40f00000
231000000: global: f2=0x404ccccd
231000000: global: f3=0xc2aa0000
231000000: global: f4=0xc2740000
231000000: global: f5=0x43bdf47b
231000000: global: f6=0x4101999a
231000000: global: f7=0x40b00000
231000000: global: f8=0x42323334
231000000: global: f9=0x40e9999a
231000000: global: f10=0x40933333
231000000: global: f11=0x420651ec
231000000: global: f12=0x4079999a
231000000: global: f13=0x40966666
231000000: global: f14=0x4192a3d7
231000000: global: f15=0x4079999a
231000000: global: f16=0x4119999a
231000000: global: f17=0x4215c290
231000000: global: f18=0x4079999a
231000000: global: f19=0x40133333
231000000: global: f20=0x410f851f
231000000: global: f21=0x40b00000
231000000: global: f22=0x3fcccccd
231000000: global: f23=0x410ccccd
231000000: global: f24=0x4101999a
231000000: global: f25=0x3f800000
231000000: global: f26=0x4101999a
231000000: global: f27=0x00000000
231000000: global: f28=0x00000000
231000000: global: f29=0x00000000
231000000: global: f30=0x00000000
231000000: global: f31=0x00000000
231000000: system.cpu.execute: Log4GUI: execute: 231000000: 0: 10210: addi x10, x0, 0: 0
231000000: system.cpu.decode: Log4GUI: decode: 231000000: 0: 10214: addi x17, x0, 93
231000000: system.cpu.fetch1: Log4GUI: fetch1: 231000000: 0: 10218: <assembly>
232000000: system.cpu.memory: Log4GUI: memory: 232000000: 0: 10210: addi x10, x0, 0
232000000: system.cpu.execute: Log4GUI: execute: 232000000: 0: 10214: addi x17, x0, 93: 0
232000000: system.cpu.decode: Log4GUI: decode: 232000000: 0: 10218: ecall
232000000: system.cpu.fetch1: Log4GUI: fetch1: 232000000: 0: 1021c: <assembly>
233000000: system.cpu.writeback: Log4GUI: writeback: 233000000: 0: 10210: addi x10, x0, 0
233000000: system.cpu.writeback: REGISTERS
233000000: global: x0=0x00000000
233000000: global: x1=0x0001121c
233000000: global: x2=0x0001125c
233000000: global: x3=0x000112a1
233000000: global: x4=0xffffffab
233000000: global: x5=0x00000010
233000000: global: x6=0x00000010
233000000: global: x7=0x00000040
233000000: global: x8=0x0001129d
233000000: global: x9=0x7f800000
233000000: global: x10=0x00000000
233000000: global: x11=0x0001129c
233000000: global: x12=0x00011298
233000000: global: x13=0x00000000
233000000: global: x14=0x00000000
233000000: global: x15=0x00000000
233000000: global: x16=0x00000000
233000000: global: x17=0x00000000
233000000: global: x18=0x00000000
233000000: global: x19=0x00000000
233000000: global: x20=0x00000000
233000000: global: x21=0x00000000
233000000: global: x22=0x00000000
233000000: global: x23=0x00000000
233000000: global: x24=0x00000000
233000000: global: x25=0x00000000
233000000: global: x26=0x00000000
233000000: global: x27=0x00000000
233000000: global: x28=0x00000000
233000000: global: x29=0x00000000
233000000: global: x30=0x00000000
233000000: global: x31=0x00000000
233000000: global: f0=0x00000000
233000000: global: f1=0x40f00000
233000000: global: f2=0x404ccccd
233000000: global: f3=0xc2aa0000
233000000: global: f4=0xc2740000
233000000: global: f5=0x43bdf47b
233000000: global: f6=0x4101999a
233000000: global: f7=0x40b00000
233000000: global: f8=0x42323334
233000000: global: f9=0x40e9999a
233000000: global: f10=0x40933333
233000000: global: f11=0x420651ec
233000000: global: f12=0x4079999a
233000000: global: f13=0x40966666
233000000: global: f14=0x4192a3d7
233000000: global: f15=0x4079999a
233000000: global: f16=0x4119999a
233000000: global: f17=0x4215c290
233000000: global: f18=0x4079999a
233000000: global: f19=0x40133333
233000000: global: f20=0x410f851f
233000000: global: f21=0x40b00000
233000000: global: f22=0x3fcccccd
233000000: global: f23=0x410ccccd
233000000: global: f24=0x4101999a
233000000: global: f25=0x3f800000
233000000: global: f26=0x4101999a
233000000: global: f27=0x00000000
233000000: global: f28=0x00000000
233000000: global: f29=0x00000000
233000000: global: f30=0x00000000
233000000: global: f31=0x00000000
233000000: system.cpu.memory: Log4GUI: memory: 233000000: 0: 10214: addi x17, x0, 93
233000000: system.cpu.execute: Log4GUI: execute: 233000000: 0: 10218: ecall: -1
233000000: system.cpu.decode: Log4GUI: decode: 233000000: 0: 1021c: c_addi4spn x8, x2, 0
233000000: system.cpu.fetch1: Log4GUI: fetch1: 233000000: 0: 1021e: <assembly>
Exiting @ tick 233000000 because exiting with last active thread context
