Global frequency set at 1000000000000 ticks per second
gem5 Simulator System.  https://www.gem5.org
gem5 is copyrighted software; use the --copyright option for details.

gem5 version 22.1.0.0
gem5 compiled Aug 27 2025 16:10:28
gem5 started Oct 25 2025 17:55:43
gem5 executing on vboxuser-VirtualBox, pid 3701
command line: /home/vboxuser/gem5/build/RISCV/gem5.opt --debug-flags=MinorGUI ./gem5_config.py --cpu-type MinorCPU --caches --l1d_size 8388608 --l1i_size 8388608 --cacheline_size 512 --cpu-clock 1MHz --sys-clock 10GHz -c program_1b

**** REAL SIMULATION ****
1000000: system.cpu.fetch1: Log4GUI: fetch1: 1000000: 0: 10094: <assembly>
2000000: system.cpu.fetch1: Log4GUI: fetch1: 2000000: 1: 10094: <assembly>
3000000: system.cpu.fetch1: Log4GUI: fetch1: 3000000: 1: 10094: <assembly>
4000000: system.cpu.fetch1: Log4GUI: fetch1: 4000000: 1: 10094: <assembly>
5000000: system.cpu.decode: Log4GUI: decode: 5000000: 0: 10094: auipc x1, 1
5000000: system.cpu.fetch1: Log4GUI: fetch1: 5000000: 0: 10098: <assembly>
6000000: system.cpu.execute: Log4GUI: execute: 6000000: 0: 10094: auipc x1, 1: 0
6000000: system.cpu.decode: Log4GUI: decode: 6000000: 0: 10098: addi x1, x1, 240
6000000: system.cpu.fetch1: Log4GUI: fetch1: 6000000: 0: 1009c: <assembly>
7000000: system.cpu.memory: Log4GUI: memory: 7000000: 0: 10094: auipc x1, 1
7000000: system.cpu.execute: Log4GUI: execute: 7000000: 0: 10098: addi x1, x1, 240: 0
7000000: system.cpu.decode: Log4GUI: decode: 7000000: 0: 1009c: flw f1, 0(x1)
7000000: system.cpu.fetch1: Log4GUI: fetch1: 7000000: 0: 100a0: <assembly>
8000000: system.cpu.writeback: Log4GUI: writeback: 8000000: 0: 10094: auipc x1, 1
8000000: system.cpu.writeback: REGISTERS
8000000: global: x0=0x00000000
8000000: global: x1=0x00011094
8000000: global: x2=0x7fffff90
8000000: global: x3=0x00000000
8000000: global: x4=0x00000000
8000000: global: x5=0x00000000
8000000: global: x6=0x00000000
8000000: global: x7=0x00000000
8000000: global: x8=0x00000000
8000000: global: x9=0x00000000
8000000: global: x10=0x00000000
8000000: global: x11=0x00000000
8000000: global: x12=0x00000000
8000000: global: x13=0x00000000
8000000: global: x14=0x00000000
8000000: global: x15=0x00000000
8000000: global: x16=0x00000000
8000000: global: x17=0x00000000
8000000: global: x18=0x00000000
8000000: global: x19=0x00000000
8000000: global: x20=0x00000000
8000000: global: x21=0x00000000
8000000: global: x22=0x00000000
8000000: global: x23=0x00000000
8000000: global: x24=0x00000000
8000000: global: x25=0x00000000
8000000: global: x26=0x00000000
8000000: global: x27=0x00000000
8000000: global: x28=0x00000000
8000000: global: x29=0x00000000
8000000: global: x30=0x00000000
8000000: global: x31=0x00000000
8000000: global: f0=0x00000000
8000000: global: f1=0x00000000
8000000: global: f2=0x00000000
8000000: global: f3=0x00000000
8000000: global: f4=0x00000000
8000000: global: f5=0x00000000
8000000: global: f6=0x00000000
8000000: global: f7=0x00000000
8000000: global: f8=0x00000000
8000000: global: f9=0x00000000
8000000: global: f10=0x00000000
8000000: global: f11=0x00000000
8000000: global: f12=0x00000000
8000000: global: f13=0x00000000
8000000: global: f14=0x00000000
8000000: global: f15=0x00000000
8000000: global: f16=0x00000000
8000000: global: f17=0x00000000
8000000: global: f18=0x00000000
8000000: global: f19=0x00000000
8000000: global: f20=0x00000000
8000000: global: f21=0x00000000
8000000: global: f22=0x00000000
8000000: global: f23=0x00000000
8000000: global: f24=0x00000000
8000000: global: f25=0x00000000
8000000: global: f26=0x00000000
8000000: global: f27=0x00000000
8000000: global: f28=0x00000000
8000000: global: f29=0x00000000
8000000: global: f30=0x00000000
8000000: global: f31=0x00000000
8000000: system.cpu.memory: Log4GUI: memory: 8000000: 0: 10098: addi x1, x1, 240
8000000: system.cpu.execute: Log4GUI: execute: 8000000: 0: 1009c: flw f1, 0(x1): 0
8000000: system.cpu.decode: Log4GUI: decode: 8000000: 0: 100a0: auipc x2, 1
8000000: system.cpu.fetch1: Log4GUI: fetch1: 8000000: 0: 100a4: <assembly>
9000000: system.cpu.writeback: Log4GUI: writeback: 9000000: 0: 10098: addi x1, x1, 240
9000000: system.cpu.writeback: REGISTERS
9000000: global: x0=0x00000000
9000000: global: x1=0x00011184
9000000: global: x2=0x7fffff90
9000000: global: x3=0x00000000
9000000: global: x4=0x00000000
9000000: global: x5=0x00000000
9000000: global: x6=0x00000000
9000000: global: x7=0x00000000
9000000: global: x8=0x00000000
9000000: global: x9=0x00000000
9000000: global: x10=0x00000000
9000000: global: x11=0x00000000
9000000: global: x12=0x00000000
9000000: global: x13=0x00000000
9000000: global: x14=0x00000000
9000000: global: x15=0x00000000
9000000: global: x16=0x00000000
9000000: global: x17=0x00000000
9000000: global: x18=0x00000000
9000000: global: x19=0x00000000
9000000: global: x20=0x00000000
9000000: global: x21=0x00000000
9000000: global: x22=0x00000000
9000000: global: x23=0x00000000
9000000: global: x24=0x00000000
9000000: global: x25=0x00000000
9000000: global: x26=0x00000000
9000000: global: x27=0x00000000
9000000: global: x28=0x00000000
9000000: global: x29=0x00000000
9000000: global: x30=0x00000000
9000000: global: x31=0x00000000
9000000: global: f0=0x00000000
9000000: global: f1=0x00000000
9000000: global: f2=0x00000000
9000000: global: f3=0x00000000
9000000: global: f4=0x00000000
9000000: global: f5=0x00000000
9000000: global: f6=0x00000000
9000000: global: f7=0x00000000
9000000: global: f8=0x00000000
9000000: global: f9=0x00000000
9000000: global: f10=0x00000000
9000000: global: f11=0x00000000
9000000: global: f12=0x00000000
9000000: global: f13=0x00000000
9000000: global: f14=0x00000000
9000000: global: f15=0x00000000
9000000: global: f16=0x00000000
9000000: global: f17=0x00000000
9000000: global: f18=0x00000000
9000000: global: f19=0x00000000
9000000: global: f20=0x00000000
9000000: global: f21=0x00000000
9000000: global: f22=0x00000000
9000000: global: f23=0x00000000
9000000: global: f24=0x00000000
9000000: global: f25=0x00000000
9000000: global: f26=0x00000000
9000000: global: f27=0x00000000
9000000: global: f28=0x00000000
9000000: global: f29=0x00000000
9000000: global: f30=0x00000000
9000000: global: f31=0x00000000
9000000: system.cpu.memory: Log4GUI: memory: 9000000: 0: 1009c: flw f1, 0(x1)
9000000: system.cpu.execute: Log4GUI: execute: 9000000: 0: 100a0: auipc x2, 1: 0
9000000: system.cpu.decode: Log4GUI: decode: 9000000: 0: 100a4: addi x2, x2, 356
9000000: system.cpu.fetch1: Log4GUI: fetch1: 9000000: 0: 100a8: <assembly>
10000000: system.cpu.memory: Log4GUI: memory: 10000000: 1: 1009c: flw f1, 0(x1)
10000000: system.cpu.execute: Log4GUI: execute: 10000000: 1: 100a0: auipc x2, 1: 0
10000000: system.cpu.decode: Log4GUI: decode: 10000000: 1: 100a4: addi x2, x2, 356
10000000: system.cpu.fetch1: Log4GUI: fetch1: 10000000: 1: 100a8: <assembly>
11000000: system.cpu.decode: Log4GUI: decode: 11000000: 1: 100a4: addi x2, x2, 356
11000000: system.cpu.fetch1: Log4GUI: fetch1: 11000000: 1: 100a8: <assembly>
12000000: system.cpu.writeback: Log4GUI: writeback: 12000000: 0: 1009c: flw f1, 0(x1)
12000000: system.cpu.writeback: REGISTERS
12000000: global: x0=0x00000000
12000000: global: x1=0x00011184
12000000: global: x2=0x7fffff90
12000000: global: x3=0x00000000
12000000: global: x4=0x00000000
12000000: global: x5=0x00000000
12000000: global: x6=0x00000000
12000000: global: x7=0x00000000
12000000: global: x8=0x00000000
12000000: global: x9=0x00000000
12000000: global: x10=0x00000000
12000000: global: x11=0x00000000
12000000: global: x12=0x00000000
12000000: global: x13=0x00000000
12000000: global: x14=0x00000000
12000000: global: x15=0x00000000
12000000: global: x16=0x00000000
12000000: global: x17=0x00000000
12000000: global: x18=0x00000000
12000000: global: x19=0x00000000
12000000: global: x20=0x00000000
12000000: global: x21=0x00000000
12000000: global: x22=0x00000000
12000000: global: x23=0x00000000
12000000: global: x24=0x00000000
12000000: global: x25=0x00000000
12000000: global: x26=0x00000000
12000000: global: x27=0x00000000
12000000: global: x28=0x00000000
12000000: global: x29=0x00000000
12000000: global: x30=0x00000000
12000000: global: x31=0x00000000
12000000: global: f0=0x00000000
12000000: global: f1=0x40933333
12000000: global: f2=0x00000000
12000000: global: f3=0x00000000
12000000: global: f4=0x00000000
12000000: global: f5=0x00000000
12000000: global: f6=0x00000000
12000000: global: f7=0x00000000
12000000: global: f8=0x00000000
12000000: global: f9=0x00000000
12000000: global: f10=0x00000000
12000000: global: f11=0x00000000
12000000: global: f12=0x00000000
12000000: global: f13=0x00000000
12000000: global: f14=0x00000000
12000000: global: f15=0x00000000
12000000: global: f16=0x00000000
12000000: global: f17=0x00000000
12000000: global: f18=0x00000000
12000000: global: f19=0x00000000
12000000: global: f20=0x00000000
12000000: global: f21=0x00000000
12000000: global: f22=0x00000000
12000000: global: f23=0x00000000
12000000: global: f24=0x00000000
12000000: global: f25=0x00000000
12000000: global: f26=0x00000000
12000000: global: f27=0x00000000
12000000: global: f28=0x00000000
12000000: global: f29=0x00000000
12000000: global: f30=0x00000000
12000000: global: f31=0x00000000
12000000: system.cpu.memory: Log4GUI: memory: 12000000: 0: 100a0: auipc x2, 1
12000000: system.cpu.execute: Log4GUI: execute: 12000000: 0: 100a4: addi x2, x2, 356: 0
12000000: system.cpu.decode: Log4GUI: decode: 12000000: 0: 100a8: flw f1, 0(x2)
12000000: system.cpu.fetch1: Log4GUI: fetch1: 12000000: 0: 100ac: <assembly>
13000000: system.cpu.writeback: Log4GUI: writeback: 13000000: 0: 100a0: auipc x2, 1
13000000: system.cpu.writeback: REGISTERS
13000000: global: x0=0x00000000
13000000: global: x1=0x00011184
13000000: global: x2=0x000110a0
13000000: global: x3=0x00000000
13000000: global: x4=0x00000000
13000000: global: x5=0x00000000
13000000: global: x6=0x00000000
13000000: global: x7=0x00000000
13000000: global: x8=0x00000000
13000000: global: x9=0x00000000
13000000: global: x10=0x00000000
13000000: global: x11=0x00000000
13000000: global: x12=0x00000000
13000000: global: x13=0x00000000
13000000: global: x14=0x00000000
13000000: global: x15=0x00000000
13000000: global: x16=0x00000000
13000000: global: x17=0x00000000
13000000: global: x18=0x00000000
13000000: global: x19=0x00000000
13000000: global: x20=0x00000000
13000000: global: x21=0x00000000
13000000: global: x22=0x00000000
13000000: global: x23=0x00000000
13000000: global: x24=0x00000000
13000000: global: x25=0x00000000
13000000: global: x26=0x00000000
13000000: global: x27=0x00000000
13000000: global: x28=0x00000000
13000000: global: x29=0x00000000
13000000: global: x30=0x00000000
13000000: global: x31=0x00000000
13000000: global: f0=0x00000000
13000000: global: f1=0x40933333
13000000: global: f2=0x00000000
13000000: global: f3=0x00000000
13000000: global: f4=0x00000000
13000000: global: f5=0x00000000
13000000: global: f6=0x00000000
13000000: global: f7=0x00000000
13000000: global: f8=0x00000000
13000000: global: f9=0x00000000
13000000: global: f10=0x00000000
13000000: global: f11=0x00000000
13000000: global: f12=0x00000000
13000000: global: f13=0x00000000
13000000: global: f14=0x00000000
13000000: global: f15=0x00000000
13000000: global: f16=0x00000000
13000000: global: f17=0x00000000
13000000: global: f18=0x00000000
13000000: global: f19=0x00000000
13000000: global: f20=0x00000000
13000000: global: f21=0x00000000
13000000: global: f22=0x00000000
13000000: global: f23=0x00000000
13000000: global: f24=0x00000000
13000000: global: f25=0x00000000
13000000: global: f26=0x00000000
13000000: global: f27=0x00000000
13000000: global: f28=0x00000000
13000000: global: f29=0x00000000
13000000: global: f30=0x00000000
13000000: global: f31=0x00000000
13000000: system.cpu.memory: Log4GUI: memory: 13000000: 0: 100a4: addi x2, x2, 356
13000000: system.cpu.execute: Log4GUI: execute: 13000000: 0: 100a8: flw f1, 0(x2): 0
13000000: system.cpu.decode: Log4GUI: decode: 13000000: 0: 100ac: auipc x3, 1
13000000: system.cpu.fetch1: Log4GUI: fetch1: 13000000: 0: 100b0: <assembly>
14000000: system.cpu.writeback: Log4GUI: writeback: 14000000: 0: 100a4: addi x2, x2, 356
14000000: system.cpu.writeback: REGISTERS
14000000: global: x0=0x00000000
14000000: global: x1=0x00011184
14000000: global: x2=0x00011204
14000000: global: x3=0x00000000
14000000: global: x4=0x00000000
14000000: global: x5=0x00000000
14000000: global: x6=0x00000000
14000000: global: x7=0x00000000
14000000: global: x8=0x00000000
14000000: global: x9=0x00000000
14000000: global: x10=0x00000000
14000000: global: x11=0x00000000
14000000: global: x12=0x00000000
14000000: global: x13=0x00000000
14000000: global: x14=0x00000000
14000000: global: x15=0x00000000
14000000: global: x16=0x00000000
14000000: global: x17=0x00000000
14000000: global: x18=0x00000000
14000000: global: x19=0x00000000
14000000: global: x20=0x00000000
14000000: global: x21=0x00000000
14000000: global: x22=0x00000000
14000000: global: x23=0x00000000
14000000: global: x24=0x00000000
14000000: global: x25=0x00000000
14000000: global: x26=0x00000000
14000000: global: x27=0x00000000
14000000: global: x28=0x00000000
14000000: global: x29=0x00000000
14000000: global: x30=0x00000000
14000000: global: x31=0x00000000
14000000: global: f0=0x00000000
14000000: global: f1=0x40933333
14000000: global: f2=0x00000000
14000000: global: f3=0x00000000
14000000: global: f4=0x00000000
14000000: global: f5=0x00000000
14000000: global: f6=0x00000000
14000000: global: f7=0x00000000
14000000: global: f8=0x00000000
14000000: global: f9=0x00000000
14000000: global: f10=0x00000000
14000000: global: f11=0x00000000
14000000: global: f12=0x00000000
14000000: global: f13=0x00000000
14000000: global: f14=0x00000000
14000000: global: f15=0x00000000
14000000: global: f16=0x00000000
14000000: global: f17=0x00000000
14000000: global: f18=0x00000000
14000000: global: f19=0x00000000
14000000: global: f20=0x00000000
14000000: global: f21=0x00000000
14000000: global: f22=0x00000000
14000000: global: f23=0x00000000
14000000: global: f24=0x00000000
14000000: global: f25=0x00000000
14000000: global: f26=0x00000000
14000000: global: f27=0x00000000
14000000: global: f28=0x00000000
14000000: global: f29=0x00000000
14000000: global: f30=0x00000000
14000000: global: f31=0x00000000
14000000: system.cpu.memory: Log4GUI: memory: 14000000: 0: 100a8: flw f1, 0(x2)
14000000: system.cpu.execute: Log4GUI: execute: 14000000: 0: 100ac: auipc x3, 1: 0
14000000: system.cpu.decode: Log4GUI: decode: 14000000: 0: 100b0: addi x3, x3, 472
14000000: system.cpu.fetch1: Log4GUI: fetch1: 14000000: 0: 100b4: <assembly>
15000000: system.cpu.memory: Log4GUI: memory: 15000000: 1: 100a8: flw f1, 0(x2)
15000000: system.cpu.execute: Log4GUI: execute: 15000000: 1: 100ac: auipc x3, 1: 0
15000000: system.cpu.decode: Log4GUI: decode: 15000000: 1: 100b0: addi x3, x3, 472
15000000: system.cpu.fetch1: Log4GUI: fetch1: 15000000: 1: 100b4: <assembly>
16000000: system.cpu.decode: Log4GUI: decode: 16000000: 1: 100b0: addi x3, x3, 472
16000000: system.cpu.fetch1: Log4GUI: fetch1: 16000000: 1: 100b4: <assembly>
17000000: system.cpu.writeback: Log4GUI: writeback: 17000000: 0: 100a8: flw f1, 0(x2)
17000000: system.cpu.writeback: REGISTERS
17000000: global: x0=0x00000000
17000000: global: x1=0x00011184
17000000: global: x2=0x00011204
17000000: global: x3=0x00000000
17000000: global: x4=0x00000000
17000000: global: x5=0x00000000
17000000: global: x6=0x00000000
17000000: global: x7=0x00000000
17000000: global: x8=0x00000000
17000000: global: x9=0x00000000
17000000: global: x10=0x00000000
17000000: global: x11=0x00000000
17000000: global: x12=0x00000000
17000000: global: x13=0x00000000
17000000: global: x14=0x00000000
17000000: global: x15=0x00000000
17000000: global: x16=0x00000000
17000000: global: x17=0x00000000
17000000: global: x18=0x00000000
17000000: global: x19=0x00000000
17000000: global: x20=0x00000000
17000000: global: x21=0x00000000
17000000: global: x22=0x00000000
17000000: global: x23=0x00000000
17000000: global: x24=0x00000000
17000000: global: x25=0x00000000
17000000: global: x26=0x00000000
17000000: global: x27=0x00000000
17000000: global: x28=0x00000000
17000000: global: x29=0x00000000
17000000: global: x30=0x00000000
17000000: global: x31=0x00000000
17000000: global: f0=0x00000000
17000000: global: f1=0x4019999a
17000000: global: f2=0x00000000
17000000: global: f3=0x00000000
17000000: global: f4=0x00000000
17000000: global: f5=0x00000000
17000000: global: f6=0x00000000
17000000: global: f7=0x00000000
17000000: global: f8=0x00000000
17000000: global: f9=0x00000000
17000000: global: f10=0x00000000
17000000: global: f11=0x00000000
17000000: global: f12=0x00000000
17000000: global: f13=0x00000000
17000000: global: f14=0x00000000
17000000: global: f15=0x00000000
17000000: global: f16=0x00000000
17000000: global: f17=0x00000000
17000000: global: f18=0x00000000
17000000: global: f19=0x00000000
17000000: global: f20=0x00000000
17000000: global: f21=0x00000000
17000000: global: f22=0x00000000
17000000: global: f23=0x00000000
17000000: global: f24=0x00000000
17000000: global: f25=0x00000000
17000000: global: f26=0x00000000
17000000: global: f27=0x00000000
17000000: global: f28=0x00000000
17000000: global: f29=0x00000000
17000000: global: f30=0x00000000
17000000: global: f31=0x00000000
17000000: system.cpu.memory: Log4GUI: memory: 17000000: 0: 100ac: auipc x3, 1
17000000: system.cpu.execute: Log4GUI: execute: 17000000: 0: 100b0: addi x3, x3, 472: 0
17000000: system.cpu.decode: Log4GUI: decode: 17000000: 0: 100b4: flw f1, 0(x3)
17000000: system.cpu.fetch1: Log4GUI: fetch1: 17000000: 0: 100b8: <assembly>
18000000: system.cpu.writeback: Log4GUI: writeback: 18000000: 0: 100ac: auipc x3, 1
18000000: system.cpu.writeback: REGISTERS
18000000: global: x0=0x00000000
18000000: global: x1=0x00011184
18000000: global: x2=0x00011204
18000000: global: x3=0x000110ac
18000000: global: x4=0x00000000
18000000: global: x5=0x00000000
18000000: global: x6=0x00000000
18000000: global: x7=0x00000000
18000000: global: x8=0x00000000
18000000: global: x9=0x00000000
18000000: global: x10=0x00000000
18000000: global: x11=0x00000000
18000000: global: x12=0x00000000
18000000: global: x13=0x00000000
18000000: global: x14=0x00000000
18000000: global: x15=0x00000000
18000000: global: x16=0x00000000
18000000: global: x17=0x00000000
18000000: global: x18=0x00000000
18000000: global: x19=0x00000000
18000000: global: x20=0x00000000
18000000: global: x21=0x00000000
18000000: global: x22=0x00000000
18000000: global: x23=0x00000000
18000000: global: x24=0x00000000
18000000: global: x25=0x00000000
18000000: global: x26=0x00000000
18000000: global: x27=0x00000000
18000000: global: x28=0x00000000
18000000: global: x29=0x00000000
18000000: global: x30=0x00000000
18000000: global: x31=0x00000000
18000000: global: f0=0x00000000
18000000: global: f1=0x4019999a
18000000: global: f2=0x00000000
18000000: global: f3=0x00000000
18000000: global: f4=0x00000000
18000000: global: f5=0x00000000
18000000: global: f6=0x00000000
18000000: global: f7=0x00000000
18000000: global: f8=0x00000000
18000000: global: f9=0x00000000
18000000: global: f10=0x00000000
18000000: global: f11=0x00000000
18000000: global: f12=0x00000000
18000000: global: f13=0x00000000
18000000: global: f14=0x00000000
18000000: global: f15=0x00000000
18000000: global: f16=0x00000000
18000000: global: f17=0x00000000
18000000: global: f18=0x00000000
18000000: global: f19=0x00000000
18000000: global: f20=0x00000000
18000000: global: f21=0x00000000
18000000: global: f22=0x00000000
18000000: global: f23=0x00000000
18000000: global: f24=0x00000000
18000000: global: f25=0x00000000
18000000: global: f26=0x00000000
18000000: global: f27=0x00000000
18000000: global: f28=0x00000000
18000000: global: f29=0x00000000
18000000: global: f30=0x00000000
18000000: global: f31=0x00000000
18000000: system.cpu.memory: Log4GUI: memory: 18000000: 0: 100b0: addi x3, x3, 472
18000000: system.cpu.execute: Log4GUI: execute: 18000000: 0: 100b4: flw f1, 0(x3): 0
18000000: system.cpu.decode: Log4GUI: decode: 18000000: 0: 100b8: auipc x4, 1
18000000: system.cpu.fetch1: Log4GUI: fetch1: 18000000: 0: 100bc: <assembly>
19000000: system.cpu.writeback: Log4GUI: writeback: 19000000: 0: 100b0: addi x3, x3, 472
19000000: system.cpu.writeback: REGISTERS
19000000: global: x0=0x00000000
19000000: global: x1=0x00011184
19000000: global: x2=0x00011204
19000000: global: x3=0x00011284
19000000: global: x4=0x00000000
19000000: global: x5=0x00000000
19000000: global: x6=0x00000000
19000000: global: x7=0x00000000
19000000: global: x8=0x00000000
19000000: global: x9=0x00000000
19000000: global: x10=0x00000000
19000000: global: x11=0x00000000
19000000: global: x12=0x00000000
19000000: global: x13=0x00000000
19000000: global: x14=0x00000000
19000000: global: x15=0x00000000
19000000: global: x16=0x00000000
19000000: global: x17=0x00000000
19000000: global: x18=0x00000000
19000000: global: x19=0x00000000
19000000: global: x20=0x00000000
19000000: global: x21=0x00000000
19000000: global: x22=0x00000000
19000000: global: x23=0x00000000
19000000: global: x24=0x00000000
19000000: global: x25=0x00000000
19000000: global: x26=0x00000000
19000000: global: x27=0x00000000
19000000: global: x28=0x00000000
19000000: global: x29=0x00000000
19000000: global: x30=0x00000000
19000000: global: x31=0x00000000
19000000: global: f0=0x00000000
19000000: global: f1=0x4019999a
19000000: global: f2=0x00000000
19000000: global: f3=0x00000000
19000000: global: f4=0x00000000
19000000: global: f5=0x00000000
19000000: global: f6=0x00000000
19000000: global: f7=0x00000000
19000000: global: f8=0x00000000
19000000: global: f9=0x00000000
19000000: global: f10=0x00000000
19000000: global: f11=0x00000000
19000000: global: f12=0x00000000
19000000: global: f13=0x00000000
19000000: global: f14=0x00000000
19000000: global: f15=0x00000000
19000000: global: f16=0x00000000
19000000: global: f17=0x00000000
19000000: global: f18=0x00000000
19000000: global: f19=0x00000000
19000000: global: f20=0x00000000
19000000: global: f21=0x00000000
19000000: global: f22=0x00000000
19000000: global: f23=0x00000000
19000000: global: f24=0x00000000
19000000: global: f25=0x00000000
19000000: global: f26=0x00000000
19000000: global: f27=0x00000000
19000000: global: f28=0x00000000
19000000: global: f29=0x00000000
19000000: global: f30=0x00000000
19000000: global: f31=0x00000000
19000000: system.cpu.memory: Log4GUI: memory: 19000000: 0: 100b4: flw f1, 0(x3)
19000000: system.cpu.execute: Log4GUI: execute: 19000000: 0: 100b8: auipc x4, 1: 0
19000000: system.cpu.decode: Log4GUI: decode: 19000000: 0: 100bc: addi x4, x4, 588
19000000: system.cpu.fetch1: Log4GUI: fetch1: 19000000: 0: 100c0: <assembly>
20000000: system.cpu.writeback: Log4GUI: writeback: 20000000: 0: 100b4: flw f1, 0(x3)
20000000: system.cpu.writeback: REGISTERS
20000000: global: x0=0x00000000
20000000: global: x1=0x00011184
20000000: global: x2=0x00011204
20000000: global: x3=0x00011284
20000000: global: x4=0x00000000
20000000: global: x5=0x00000000
20000000: global: x6=0x00000000
20000000: global: x7=0x00000000
20000000: global: x8=0x00000000
20000000: global: x9=0x00000000
20000000: global: x10=0x00000000
20000000: global: x11=0x00000000
20000000: global: x12=0x00000000
20000000: global: x13=0x00000000
20000000: global: x14=0x00000000
20000000: global: x15=0x00000000
20000000: global: x16=0x00000000
20000000: global: x17=0x00000000
20000000: global: x18=0x00000000
20000000: global: x19=0x00000000
20000000: global: x20=0x00000000
20000000: global: x21=0x00000000
20000000: global: x22=0x00000000
20000000: global: x23=0x00000000
20000000: global: x24=0x00000000
20000000: global: x25=0x00000000
20000000: global: x26=0x00000000
20000000: global: x27=0x00000000
20000000: global: x28=0x00000000
20000000: global: x29=0x00000000
20000000: global: x30=0x00000000
20000000: global: x31=0x00000000
20000000: global: f0=0x00000000
20000000: global: f1=0x40200000
20000000: global: f2=0x00000000
20000000: global: f3=0x00000000
20000000: global: f4=0x00000000
20000000: global: f5=0x00000000
20000000: global: f6=0x00000000
20000000: global: f7=0x00000000
20000000: global: f8=0x00000000
20000000: global: f9=0x00000000
20000000: global: f10=0x00000000
20000000: global: f11=0x00000000
20000000: global: f12=0x00000000
20000000: global: f13=0x00000000
20000000: global: f14=0x00000000
20000000: global: f15=0x00000000
20000000: global: f16=0x00000000
20000000: global: f17=0x00000000
20000000: global: f18=0x00000000
20000000: global: f19=0x00000000
20000000: global: f20=0x00000000
20000000: global: f21=0x00000000
20000000: global: f22=0x00000000
20000000: global: f23=0x00000000
20000000: global: f24=0x00000000
20000000: global: f25=0x00000000
20000000: global: f26=0x00000000
20000000: global: f27=0x00000000
20000000: global: f28=0x00000000
20000000: global: f29=0x00000000
20000000: global: f30=0x00000000
20000000: global: f31=0x00000000
20000000: system.cpu.memory: Log4GUI: memory: 20000000: 0: 100b8: auipc x4, 1
20000000: system.cpu.execute: Log4GUI: execute: 20000000: 0: 100bc: addi x4, x4, 588: 0
20000000: system.cpu.decode: Log4GUI: decode: 20000000: 0: 100c0: auipc x5, 1
20000000: system.cpu.fetch1: Log4GUI: fetch1: 20000000: 0: 100c4: <assembly>
21000000: system.cpu.writeback: Log4GUI: writeback: 21000000: 0: 100b8: auipc x4, 1
21000000: system.cpu.writeback: REGISTERS
21000000: global: x0=0x00000000
21000000: global: x1=0x00011184
21000000: global: x2=0x00011204
21000000: global: x3=0x00011284
21000000: global: x4=0x000110b8
21000000: global: x5=0x00000000
21000000: global: x6=0x00000000
21000000: global: x7=0x00000000
21000000: global: x8=0x00000000
21000000: global: x9=0x00000000
21000000: global: x10=0x00000000
21000000: global: x11=0x00000000
21000000: global: x12=0x00000000
21000000: global: x13=0x00000000
21000000: global: x14=0x00000000
21000000: global: x15=0x00000000
21000000: global: x16=0x00000000
21000000: global: x17=0x00000000
21000000: global: x18=0x00000000
21000000: global: x19=0x00000000
21000000: global: x20=0x00000000
21000000: global: x21=0x00000000
21000000: global: x22=0x00000000
21000000: global: x23=0x00000000
21000000: global: x24=0x00000000
21000000: global: x25=0x00000000
21000000: global: x26=0x00000000
21000000: global: x27=0x00000000
21000000: global: x28=0x00000000
21000000: global: x29=0x00000000
21000000: global: x30=0x00000000
21000000: global: x31=0x00000000
21000000: global: f0=0x00000000
21000000: global: f1=0x40200000
21000000: global: f2=0x00000000
21000000: global: f3=0x00000000
21000000: global: f4=0x00000000
21000000: global: f5=0x00000000
21000000: global: f6=0x00000000
21000000: global: f7=0x00000000
21000000: global: f8=0x00000000
21000000: global: f9=0x00000000
21000000: global: f10=0x00000000
21000000: global: f11=0x00000000
21000000: global: f12=0x00000000
21000000: global: f13=0x00000000
21000000: global: f14=0x00000000
21000000: global: f15=0x00000000
21000000: global: f16=0x00000000
21000000: global: f17=0x00000000
21000000: global: f18=0x00000000
21000000: global: f19=0x00000000
21000000: global: f20=0x00000000
21000000: global: f21=0x00000000
21000000: global: f22=0x00000000
21000000: global: f23=0x00000000
21000000: global: f24=0x00000000
21000000: global: f25=0x00000000
21000000: global: f26=0x00000000
21000000: global: f27=0x00000000
21000000: global: f28=0x00000000
21000000: global: f29=0x00000000
21000000: global: f30=0x00000000
21000000: global: f31=0x00000000
21000000: system.cpu.memory: Log4GUI: memory: 21000000: 0: 100bc: addi x4, x4, 588
21000000: system.cpu.execute: Log4GUI: execute: 21000000: 0: 100c0: auipc x5, 1: 0
21000000: system.cpu.decode: Log4GUI: decode: 21000000: 0: 100c4: addi x5, x5, 708
21000000: system.cpu.fetch1: Log4GUI: fetch1: 21000000: 0: 100c8: <assembly>
22000000: system.cpu.writeback: Log4GUI: writeback: 22000000: 0: 100bc: addi x4, x4, 588
22000000: system.cpu.writeback: REGISTERS
22000000: global: x0=0x00000000
22000000: global: x1=0x00011184
22000000: global: x2=0x00011204
22000000: global: x3=0x00011284
22000000: global: x4=0x00011304
22000000: global: x5=0x00000000
22000000: global: x6=0x00000000
22000000: global: x7=0x00000000
22000000: global: x8=0x00000000
22000000: global: x9=0x00000000
22000000: global: x10=0x00000000
22000000: global: x11=0x00000000
22000000: global: x12=0x00000000
22000000: global: x13=0x00000000
22000000: global: x14=0x00000000
22000000: global: x15=0x00000000
22000000: global: x16=0x00000000
22000000: global: x17=0x00000000
22000000: global: x18=0x00000000
22000000: global: x19=0x00000000
22000000: global: x20=0x00000000
22000000: global: x21=0x00000000
22000000: global: x22=0x00000000
22000000: global: x23=0x00000000
22000000: global: x24=0x00000000
22000000: global: x25=0x00000000
22000000: global: x26=0x00000000
22000000: global: x27=0x00000000
22000000: global: x28=0x00000000
22000000: global: x29=0x00000000
22000000: global: x30=0x00000000
22000000: global: x31=0x00000000
22000000: global: f0=0x00000000
22000000: global: f1=0x40200000
22000000: global: f2=0x00000000
22000000: global: f3=0x00000000
22000000: global: f4=0x00000000
22000000: global: f5=0x00000000
22000000: global: f6=0x00000000
22000000: global: f7=0x00000000
22000000: global: f8=0x00000000
22000000: global: f9=0x00000000
22000000: global: f10=0x00000000
22000000: global: f11=0x00000000
22000000: global: f12=0x00000000
22000000: global: f13=0x00000000
22000000: global: f14=0x00000000
22000000: global: f15=0x00000000
22000000: global: f16=0x00000000
22000000: global: f17=0x00000000
22000000: global: f18=0x00000000
22000000: global: f19=0x00000000
22000000: global: f20=0x00000000
22000000: global: f21=0x00000000
22000000: global: f22=0x00000000
22000000: global: f23=0x00000000
22000000: global: f24=0x00000000
22000000: global: f25=0x00000000
22000000: global: f26=0x00000000
22000000: global: f27=0x00000000
22000000: global: f28=0x00000000
22000000: global: f29=0x00000000
22000000: global: f30=0x00000000
22000000: global: f31=0x00000000
22000000: system.cpu.memory: Log4GUI: memory: 22000000: 0: 100c0: auipc x5, 1
22000000: system.cpu.execute: Log4GUI: execute: 22000000: 0: 100c4: addi x5, x5, 708: 0
22000000: system.cpu.decode: Log4GUI: decode: 22000000: 0: 100c8: auipc x6, 1
22000000: system.cpu.fetch1: Log4GUI: fetch1: 22000000: 0: 100cc: <assembly>
23000000: system.cpu.writeback: Log4GUI: writeback: 23000000: 0: 100c0: auipc x5, 1
23000000: system.cpu.writeback: REGISTERS
23000000: global: x0=0x00000000
23000000: global: x1=0x00011184
23000000: global: x2=0x00011204
23000000: global: x3=0x00011284
23000000: global: x4=0x00011304
23000000: global: x5=0x000110c0
23000000: global: x6=0x00000000
23000000: global: x7=0x00000000
23000000: global: x8=0x00000000
23000000: global: x9=0x00000000
23000000: global: x10=0x00000000
23000000: global: x11=0x00000000
23000000: global: x12=0x00000000
23000000: global: x13=0x00000000
23000000: global: x14=0x00000000
23000000: global: x15=0x00000000
23000000: global: x16=0x00000000
23000000: global: x17=0x00000000
23000000: global: x18=0x00000000
23000000: global: x19=0x00000000
23000000: global: x20=0x00000000
23000000: global: x21=0x00000000
23000000: global: x22=0x00000000
23000000: global: x23=0x00000000
23000000: global: x24=0x00000000
23000000: global: x25=0x00000000
23000000: global: x26=0x00000000
23000000: global: x27=0x00000000
23000000: global: x28=0x00000000
23000000: global: x29=0x00000000
23000000: global: x30=0x00000000
23000000: global: x31=0x00000000
23000000: global: f0=0x00000000
23000000: global: f1=0x40200000
23000000: global: f2=0x00000000
23000000: global: f3=0x00000000
23000000: global: f4=0x00000000
23000000: global: f5=0x00000000
23000000: global: f6=0x00000000
23000000: global: f7=0x00000000
23000000: global: f8=0x00000000
23000000: global: f9=0x00000000
23000000: global: f10=0x00000000
23000000: global: f11=0x00000000
23000000: global: f12=0x00000000
23000000: global: f13=0x00000000
23000000: global: f14=0x00000000
23000000: global: f15=0x00000000
23000000: global: f16=0x00000000
23000000: global: f17=0x00000000
23000000: global: f18=0x00000000
23000000: global: f19=0x00000000
23000000: global: f20=0x00000000
23000000: global: f21=0x00000000
23000000: global: f22=0x00000000
23000000: global: f23=0x00000000
23000000: global: f24=0x00000000
23000000: global: f25=0x00000000
23000000: global: f26=0x00000000
23000000: global: f27=0x00000000
23000000: global: f28=0x00000000
23000000: global: f29=0x00000000
23000000: global: f30=0x00000000
23000000: global: f31=0x00000000
23000000: system.cpu.memory: Log4GUI: memory: 23000000: 0: 100c4: addi x5, x5, 708
23000000: system.cpu.execute: Log4GUI: execute: 23000000: 0: 100c8: auipc x6, 1: 0
23000000: system.cpu.decode: Log4GUI: decode: 23000000: 0: 100cc: addi x6, x6, 828
23000000: system.cpu.fetch1: Log4GUI: fetch1: 23000000: 0: 100d0: <assembly>
24000000: system.cpu.writeback: Log4GUI: writeback: 24000000: 0: 100c4: addi x5, x5, 708
24000000: system.cpu.writeback: REGISTERS
24000000: global: x0=0x00000000
24000000: global: x1=0x00011184
24000000: global: x2=0x00011204
24000000: global: x3=0x00011284
24000000: global: x4=0x00011304
24000000: global: x5=0x00011384
24000000: global: x6=0x00000000
24000000: global: x7=0x00000000
24000000: global: x8=0x00000000
24000000: global: x9=0x00000000
24000000: global: x10=0x00000000
24000000: global: x11=0x00000000
24000000: global: x12=0x00000000
24000000: global: x13=0x00000000
24000000: global: x14=0x00000000
24000000: global: x15=0x00000000
24000000: global: x16=0x00000000
24000000: global: x17=0x00000000
24000000: global: x18=0x00000000
24000000: global: x19=0x00000000
24000000: global: x20=0x00000000
24000000: global: x21=0x00000000
24000000: global: x22=0x00000000
24000000: global: x23=0x00000000
24000000: global: x24=0x00000000
24000000: global: x25=0x00000000
24000000: global: x26=0x00000000
24000000: global: x27=0x00000000
24000000: global: x28=0x00000000
24000000: global: x29=0x00000000
24000000: global: x30=0x00000000
24000000: global: x31=0x00000000
24000000: global: f0=0x00000000
24000000: global: f1=0x40200000
24000000: global: f2=0x00000000
24000000: global: f3=0x00000000
24000000: global: f4=0x00000000
24000000: global: f5=0x00000000
24000000: global: f6=0x00000000
24000000: global: f7=0x00000000
24000000: global: f8=0x00000000
24000000: global: f9=0x00000000
24000000: global: f10=0x00000000
24000000: global: f11=0x00000000
24000000: global: f12=0x00000000
24000000: global: f13=0x00000000
24000000: global: f14=0x00000000
24000000: global: f15=0x00000000
24000000: global: f16=0x00000000
24000000: global: f17=0x00000000
24000000: global: f18=0x00000000
24000000: global: f19=0x00000000
24000000: global: f20=0x00000000
24000000: global: f21=0x00000000
24000000: global: f22=0x00000000
24000000: global: f23=0x00000000
24000000: global: f24=0x00000000
24000000: global: f25=0x00000000
24000000: global: f26=0x00000000
24000000: global: f27=0x00000000
24000000: global: f28=0x00000000
24000000: global: f29=0x00000000
24000000: global: f30=0x00000000
24000000: global: f31=0x00000000
24000000: system.cpu.memory: Log4GUI: memory: 24000000: 0: 100c8: auipc x6, 1
24000000: system.cpu.execute: Log4GUI: execute: 24000000: 0: 100cc: addi x6, x6, 828: 0
24000000: system.cpu.decode: Log4GUI: decode: 24000000: 0: 100d0: auipc x12, 1
24000000: system.cpu.fetch1: Log4GUI: fetch1: 24000000: 0: 100d4: <assembly>
25000000: system.cpu.writeback: Log4GUI: writeback: 25000000: 0: 100c8: auipc x6, 1
25000000: system.cpu.writeback: REGISTERS
25000000: global: x0=0x00000000
25000000: global: x1=0x00011184
25000000: global: x2=0x00011204
25000000: global: x3=0x00011284
25000000: global: x4=0x00011304
25000000: global: x5=0x00011384
25000000: global: x6=0x000110c8
25000000: global: x7=0x00000000
25000000: global: x8=0x00000000
25000000: global: x9=0x00000000
25000000: global: x10=0x00000000
25000000: global: x11=0x00000000
25000000: global: x12=0x00000000
25000000: global: x13=0x00000000
25000000: global: x14=0x00000000
25000000: global: x15=0x00000000
25000000: global: x16=0x00000000
25000000: global: x17=0x00000000
25000000: global: x18=0x00000000
25000000: global: x19=0x00000000
25000000: global: x20=0x00000000
25000000: global: x21=0x00000000
25000000: global: x22=0x00000000
25000000: global: x23=0x00000000
25000000: global: x24=0x00000000
25000000: global: x25=0x00000000
25000000: global: x26=0x00000000
25000000: global: x27=0x00000000
25000000: global: x28=0x00000000
25000000: global: x29=0x00000000
25000000: global: x30=0x00000000
25000000: global: x31=0x00000000
25000000: global: f0=0x00000000
25000000: global: f1=0x40200000
25000000: global: f2=0x00000000
25000000: global: f3=0x00000000
25000000: global: f4=0x00000000
25000000: global: f5=0x00000000
25000000: global: f6=0x00000000
25000000: global: f7=0x00000000
25000000: global: f8=0x00000000
25000000: global: f9=0x00000000
25000000: global: f10=0x00000000
25000000: global: f11=0x00000000
25000000: global: f12=0x00000000
25000000: global: f13=0x00000000
25000000: global: f14=0x00000000
25000000: global: f15=0x00000000
25000000: global: f16=0x00000000
25000000: global: f17=0x00000000
25000000: global: f18=0x00000000
25000000: global: f19=0x00000000
25000000: global: f20=0x00000000
25000000: global: f21=0x00000000
25000000: global: f22=0x00000000
25000000: global: f23=0x00000000
25000000: global: f24=0x00000000
25000000: global: f25=0x00000000
25000000: global: f26=0x00000000
25000000: global: f27=0x00000000
25000000: global: f28=0x00000000
25000000: global: f29=0x00000000
25000000: global: f30=0x00000000
25000000: global: f31=0x00000000
25000000: system.cpu.memory: Log4GUI: memory: 25000000: 0: 100cc: addi x6, x6, 828
25000000: system.cpu.execute: Log4GUI: execute: 25000000: 0: 100d0: auipc x12, 1: 0
25000000: system.cpu.decode: Log4GUI: decode: 25000000: 0: 100d4: addi x12, x12, 948
25000000: system.cpu.fetch1: Log4GUI: fetch1: 25000000: 0: 100d8: <assembly>
26000000: system.cpu.writeback: Log4GUI: writeback: 26000000: 0: 100cc: addi x6, x6, 828
26000000: system.cpu.writeback: REGISTERS
26000000: global: x0=0x00000000
26000000: global: x1=0x00011184
26000000: global: x2=0x00011204
26000000: global: x3=0x00011284
26000000: global: x4=0x00011304
26000000: global: x5=0x00011384
26000000: global: x6=0x00011404
26000000: global: x7=0x00000000
26000000: global: x8=0x00000000
26000000: global: x9=0x00000000
26000000: global: x10=0x00000000
26000000: global: x11=0x00000000
26000000: global: x12=0x00000000
26000000: global: x13=0x00000000
26000000: global: x14=0x00000000
26000000: global: x15=0x00000000
26000000: global: x16=0x00000000
26000000: global: x17=0x00000000
26000000: global: x18=0x00000000
26000000: global: x19=0x00000000
26000000: global: x20=0x00000000
26000000: global: x21=0x00000000
26000000: global: x22=0x00000000
26000000: global: x23=0x00000000
26000000: global: x24=0x00000000
26000000: global: x25=0x00000000
26000000: global: x26=0x00000000
26000000: global: x27=0x00000000
26000000: global: x28=0x00000000
26000000: global: x29=0x00000000
26000000: global: x30=0x00000000
26000000: global: x31=0x00000000
26000000: global: f0=0x00000000
26000000: global: f1=0x40200000
26000000: global: f2=0x00000000
26000000: global: f3=0x00000000
26000000: global: f4=0x00000000
26000000: global: f5=0x00000000
26000000: global: f6=0x00000000
26000000: global: f7=0x00000000
26000000: global: f8=0x00000000
26000000: global: f9=0x00000000
26000000: global: f10=0x00000000
26000000: global: f11=0x00000000
26000000: global: f12=0x00000000
26000000: global: f13=0x00000000
26000000: global: f14=0x00000000
26000000: global: f15=0x00000000
26000000: global: f16=0x00000000
26000000: global: f17=0x00000000
26000000: global: f18=0x00000000
26000000: global: f19=0x00000000
26000000: global: f20=0x00000000
26000000: global: f21=0x00000000
26000000: global: f22=0x00000000
26000000: global: f23=0x00000000
26000000: global: f24=0x00000000
26000000: global: f25=0x00000000
26000000: global: f26=0x00000000
26000000: global: f27=0x00000000
26000000: global: f28=0x00000000
26000000: global: f29=0x00000000
26000000: global: f30=0x00000000
26000000: global: f31=0x00000000
26000000: system.cpu.memory: Log4GUI: memory: 26000000: 0: 100d0: auipc x12, 1
26000000: system.cpu.execute: Log4GUI: execute: 26000000: 0: 100d4: addi x12, x12, 948: 0
26000000: system.cpu.decode: Log4GUI: decode: 26000000: 0: 100d8: lb x11, 0(x12)
26000000: system.cpu.fetch1: Log4GUI: fetch1: 26000000: 0: 100dc: <assembly>
27000000: system.cpu.writeback: Log4GUI: writeback: 27000000: 0: 100d0: auipc x12, 1
27000000: system.cpu.writeback: REGISTERS
27000000: global: x0=0x00000000
27000000: global: x1=0x00011184
27000000: global: x2=0x00011204
27000000: global: x3=0x00011284
27000000: global: x4=0x00011304
27000000: global: x5=0x00011384
27000000: global: x6=0x00011404
27000000: global: x7=0x00000000
27000000: global: x8=0x00000000
27000000: global: x9=0x00000000
27000000: global: x10=0x00000000
27000000: global: x11=0x00000000
27000000: global: x12=0x000110d0
27000000: global: x13=0x00000000
27000000: global: x14=0x00000000
27000000: global: x15=0x00000000
27000000: global: x16=0x00000000
27000000: global: x17=0x00000000
27000000: global: x18=0x00000000
27000000: global: x19=0x00000000
27000000: global: x20=0x00000000
27000000: global: x21=0x00000000
27000000: global: x22=0x00000000
27000000: global: x23=0x00000000
27000000: global: x24=0x00000000
27000000: global: x25=0x00000000
27000000: global: x26=0x00000000
27000000: global: x27=0x00000000
27000000: global: x28=0x00000000
27000000: global: x29=0x00000000
27000000: global: x30=0x00000000
27000000: global: x31=0x00000000
27000000: global: f0=0x00000000
27000000: global: f1=0x40200000
27000000: global: f2=0x00000000
27000000: global: f3=0x00000000
27000000: global: f4=0x00000000
27000000: global: f5=0x00000000
27000000: global: f6=0x00000000
27000000: global: f7=0x00000000
27000000: global: f8=0x00000000
27000000: global: f9=0x00000000
27000000: global: f10=0x00000000
27000000: global: f11=0x00000000
27000000: global: f12=0x00000000
27000000: global: f13=0x00000000
27000000: global: f14=0x00000000
27000000: global: f15=0x00000000
27000000: global: f16=0x00000000
27000000: global: f17=0x00000000
27000000: global: f18=0x00000000
27000000: global: f19=0x00000000
27000000: global: f20=0x00000000
27000000: global: f21=0x00000000
27000000: global: f22=0x00000000
27000000: global: f23=0x00000000
27000000: global: f24=0x00000000
27000000: global: f25=0x00000000
27000000: global: f26=0x00000000
27000000: global: f27=0x00000000
27000000: global: f28=0x00000000
27000000: global: f29=0x00000000
27000000: global: f30=0x00000000
27000000: global: f31=0x00000000
27000000: system.cpu.memory: Log4GUI: memory: 27000000: 0: 100d4: addi x12, x12, 948
27000000: system.cpu.execute: Log4GUI: execute: 27000000: 0: 100d8: lb x11, 0(x12): 0
27000000: system.cpu.decode: Log4GUI: decode: 27000000: 0: 100dc: auipc x12, 1
27000000: system.cpu.fetch1: Log4GUI: fetch1: 27000000: 0: 100e0: <assembly>
28000000: system.cpu.writeback: Log4GUI: writeback: 28000000: 0: 100d4: addi x12, x12, 948
28000000: system.cpu.writeback: REGISTERS
28000000: global: x0=0x00000000
28000000: global: x1=0x00011184
28000000: global: x2=0x00011204
28000000: global: x3=0x00011284
28000000: global: x4=0x00011304
28000000: global: x5=0x00011384
28000000: global: x6=0x00011404
28000000: global: x7=0x00000000
28000000: global: x8=0x00000000
28000000: global: x9=0x00000000
28000000: global: x10=0x00000000
28000000: global: x11=0x00000000
28000000: global: x12=0x00011484
28000000: global: x13=0x00000000
28000000: global: x14=0x00000000
28000000: global: x15=0x00000000
28000000: global: x16=0x00000000
28000000: global: x17=0x00000000
28000000: global: x18=0x00000000
28000000: global: x19=0x00000000
28000000: global: x20=0x00000000
28000000: global: x21=0x00000000
28000000: global: x22=0x00000000
28000000: global: x23=0x00000000
28000000: global: x24=0x00000000
28000000: global: x25=0x00000000
28000000: global: x26=0x00000000
28000000: global: x27=0x00000000
28000000: global: x28=0x00000000
28000000: global: x29=0x00000000
28000000: global: x30=0x00000000
28000000: global: x31=0x00000000
28000000: global: f0=0x00000000
28000000: global: f1=0x40200000
28000000: global: f2=0x00000000
28000000: global: f3=0x00000000
28000000: global: f4=0x00000000
28000000: global: f5=0x00000000
28000000: global: f6=0x00000000
28000000: global: f7=0x00000000
28000000: global: f8=0x00000000
28000000: global: f9=0x00000000
28000000: global: f10=0x00000000
28000000: global: f11=0x00000000
28000000: global: f12=0x00000000
28000000: global: f13=0x00000000
28000000: global: f14=0x00000000
28000000: global: f15=0x00000000
28000000: global: f16=0x00000000
28000000: global: f17=0x00000000
28000000: global: f18=0x00000000
28000000: global: f19=0x00000000
28000000: global: f20=0x00000000
28000000: global: f21=0x00000000
28000000: global: f22=0x00000000
28000000: global: f23=0x00000000
28000000: global: f24=0x00000000
28000000: global: f25=0x00000000
28000000: global: f26=0x00000000
28000000: global: f27=0x00000000
28000000: global: f28=0x00000000
28000000: global: f29=0x00000000
28000000: global: f30=0x00000000
28000000: global: f31=0x00000000
28000000: system.cpu.memory: Log4GUI: memory: 28000000: 0: 100d8: lb x11, 0(x12)
28000000: system.cpu.execute: Log4GUI: execute: 28000000: 0: 100dc: auipc x12, 1: 0
28000000: system.cpu.decode: Log4GUI: decode: 28000000: 0: 100e0: addi x12, x12, 937
28000000: system.cpu.fetch1: Log4GUI: fetch1: 28000000: 0: 100e4: <assembly>
29000000: system.cpu.memory: Log4GUI: memory: 29000000: 1: 100d8: lb x11, 0(x12)
29000000: system.cpu.execute: Log4GUI: execute: 29000000: 1: 100dc: auipc x12, 1: 0
29000000: system.cpu.decode: Log4GUI: decode: 29000000: 1: 100e0: addi x12, x12, 937
29000000: system.cpu.fetch1: Log4GUI: fetch1: 29000000: 1: 100e4: <assembly>
30000000: system.cpu.decode: Log4GUI: decode: 30000000: 1: 100e0: addi x12, x12, 937
30000000: system.cpu.fetch1: Log4GUI: fetch1: 30000000: 1: 100e4: <assembly>
31000000: system.cpu.writeback: Log4GUI: writeback: 31000000: 0: 100d8: lb x11, 0(x12)
31000000: system.cpu.writeback: REGISTERS
31000000: global: x0=0x00000000
31000000: global: x1=0x00011184
31000000: global: x2=0x00011204
31000000: global: x3=0x00011284
31000000: global: x4=0x00011304
31000000: global: x5=0x00011384
31000000: global: x6=0x00011404
31000000: global: x7=0x00000000
31000000: global: x8=0x00000000
31000000: global: x9=0x00000000
31000000: global: x10=0x00000000
31000000: global: x11=0x00000001
31000000: global: x12=0x00011484
31000000: global: x13=0x00000000
31000000: global: x14=0x00000000
31000000: global: x15=0x00000000
31000000: global: x16=0x00000000
31000000: global: x17=0x00000000
31000000: global: x18=0x00000000
31000000: global: x19=0x00000000
31000000: global: x20=0x00000000
31000000: global: x21=0x00000000
31000000: global: x22=0x00000000
31000000: global: x23=0x00000000
31000000: global: x24=0x00000000
31000000: global: x25=0x00000000
31000000: global: x26=0x00000000
31000000: global: x27=0x00000000
31000000: global: x28=0x00000000
31000000: global: x29=0x00000000
31000000: global: x30=0x00000000
31000000: global: x31=0x00000000
31000000: global: f0=0x00000000
31000000: global: f1=0x40200000
31000000: global: f2=0x00000000
31000000: global: f3=0x00000000
31000000: global: f4=0x00000000
31000000: global: f5=0x00000000
31000000: global: f6=0x00000000
31000000: global: f7=0x00000000
31000000: global: f8=0x00000000
31000000: global: f9=0x00000000
31000000: global: f10=0x00000000
31000000: global: f11=0x00000000
31000000: global: f12=0x00000000
31000000: global: f13=0x00000000
31000000: global: f14=0x00000000
31000000: global: f15=0x00000000
31000000: global: f16=0x00000000
31000000: global: f17=0x00000000
31000000: global: f18=0x00000000
31000000: global: f19=0x00000000
31000000: global: f20=0x00000000
31000000: global: f21=0x00000000
31000000: global: f22=0x00000000
31000000: global: f23=0x00000000
31000000: global: f24=0x00000000
31000000: global: f25=0x00000000
31000000: global: f26=0x00000000
31000000: global: f27=0x00000000
31000000: global: f28=0x00000000
31000000: global: f29=0x00000000
31000000: global: f30=0x00000000
31000000: global: f31=0x00000000
31000000: system.cpu.memory: Log4GUI: memory: 31000000: 0: 100dc: auipc x12, 1
31000000: system.cpu.execute: Log4GUI: execute: 31000000: 0: 100e0: addi x12, x12, 937: 0
31000000: system.cpu.decode: Log4GUI: decode: 31000000: 0: 100e4: flw f11, 0(x12)
31000000: system.cpu.fetch1: Log4GUI: fetch1: 31000000: 0: 100e8: <assembly>
32000000: system.cpu.writeback: Log4GUI: writeback: 32000000: 0: 100dc: auipc x12, 1
32000000: system.cpu.writeback: REGISTERS
32000000: global: x0=0x00000000
32000000: global: x1=0x00011184
32000000: global: x2=0x00011204
32000000: global: x3=0x00011284
32000000: global: x4=0x00011304
32000000: global: x5=0x00011384
32000000: global: x6=0x00011404
32000000: global: x7=0x00000000
32000000: global: x8=0x00000000
32000000: global: x9=0x00000000
32000000: global: x10=0x00000000
32000000: global: x11=0x00000001
32000000: global: x12=0x000110dc
32000000: global: x13=0x00000000
32000000: global: x14=0x00000000
32000000: global: x15=0x00000000
32000000: global: x16=0x00000000
32000000: global: x17=0x00000000
32000000: global: x18=0x00000000
32000000: global: x19=0x00000000
32000000: global: x20=0x00000000
32000000: global: x21=0x00000000
32000000: global: x22=0x00000000
32000000: global: x23=0x00000000
32000000: global: x24=0x00000000
32000000: global: x25=0x00000000
32000000: global: x26=0x00000000
32000000: global: x27=0x00000000
32000000: global: x28=0x00000000
32000000: global: x29=0x00000000
32000000: global: x30=0x00000000
32000000: global: x31=0x00000000
32000000: global: f0=0x00000000
32000000: global: f1=0x40200000
32000000: global: f2=0x00000000
32000000: global: f3=0x00000000
32000000: global: f4=0x00000000
32000000: global: f5=0x00000000
32000000: global: f6=0x00000000
32000000: global: f7=0x00000000
32000000: global: f8=0x00000000
32000000: global: f9=0x00000000
32000000: global: f10=0x00000000
32000000: global: f11=0x00000000
32000000: global: f12=0x00000000
32000000: global: f13=0x00000000
32000000: global: f14=0x00000000
32000000: global: f15=0x00000000
32000000: global: f16=0x00000000
32000000: global: f17=0x00000000
32000000: global: f18=0x00000000
32000000: global: f19=0x00000000
32000000: global: f20=0x00000000
32000000: global: f21=0x00000000
32000000: global: f22=0x00000000
32000000: global: f23=0x00000000
32000000: global: f24=0x00000000
32000000: global: f25=0x00000000
32000000: global: f26=0x00000000
32000000: global: f27=0x00000000
32000000: global: f28=0x00000000
32000000: global: f29=0x00000000
32000000: global: f30=0x00000000
32000000: global: f31=0x00000000
32000000: system.cpu.memory: Log4GUI: memory: 32000000: 0: 100e0: addi x12, x12, 937
32000000: system.cpu.execute: Log4GUI: execute: 32000000: 0: 100e4: flw f11, 0(x12): 0
32000000: system.cpu.decode: Log4GUI: decode: 32000000: 0: 100e8: addi x7, x0, 31
32000000: system.cpu.fetch1: Log4GUI: fetch1: 32000000: 0: 100ec: <assembly>
33000000: system.cpu.writeback: Log4GUI: writeback: 33000000: 0: 100e0: addi x12, x12, 937
33000000: system.cpu.writeback: REGISTERS
33000000: global: x0=0x00000000
33000000: global: x1=0x00011184
33000000: global: x2=0x00011204
33000000: global: x3=0x00011284
33000000: global: x4=0x00011304
33000000: global: x5=0x00011384
33000000: global: x6=0x00011404
33000000: global: x7=0x00000000
33000000: global: x8=0x00000000
33000000: global: x9=0x00000000
33000000: global: x10=0x00000000
33000000: global: x11=0x00000001
33000000: global: x12=0x00011485
33000000: global: x13=0x00000000
33000000: global: x14=0x00000000
33000000: global: x15=0x00000000
33000000: global: x16=0x00000000
33000000: global: x17=0x00000000
33000000: global: x18=0x00000000
33000000: global: x19=0x00000000
33000000: global: x20=0x00000000
33000000: global: x21=0x00000000
33000000: global: x22=0x00000000
33000000: global: x23=0x00000000
33000000: global: x24=0x00000000
33000000: global: x25=0x00000000
33000000: global: x26=0x00000000
33000000: global: x27=0x00000000
33000000: global: x28=0x00000000
33000000: global: x29=0x00000000
33000000: global: x30=0x00000000
33000000: global: x31=0x00000000
33000000: global: f0=0x00000000
33000000: global: f1=0x40200000
33000000: global: f2=0x00000000
33000000: global: f3=0x00000000
33000000: global: f4=0x00000000
33000000: global: f5=0x00000000
33000000: global: f6=0x00000000
33000000: global: f7=0x00000000
33000000: global: f8=0x00000000
33000000: global: f9=0x00000000
33000000: global: f10=0x00000000
33000000: global: f11=0x00000000
33000000: global: f12=0x00000000
33000000: global: f13=0x00000000
33000000: global: f14=0x00000000
33000000: global: f15=0x00000000
33000000: global: f16=0x00000000
33000000: global: f17=0x00000000
33000000: global: f18=0x00000000
33000000: global: f19=0x00000000
33000000: global: f20=0x00000000
33000000: global: f21=0x00000000
33000000: global: f22=0x00000000
33000000: global: f23=0x00000000
33000000: global: f24=0x00000000
33000000: global: f25=0x00000000
33000000: global: f26=0x00000000
33000000: global: f27=0x00000000
33000000: global: f28=0x00000000
33000000: global: f29=0x00000000
33000000: global: f30=0x00000000
33000000: global: f31=0x00000000
33000000: system.cpu.memory: Log4GUI: memory: 33000000: 0: 100e4: flw f11, 0(x12)
33000000: system.cpu.execute: Log4GUI: execute: 33000000: 0: 100e8: addi x7, x0, 31: 0
33000000: system.cpu.decode: Log4GUI: decode: 33000000: 0: 100ec: slli x9, x7, 2
33000000: system.cpu.fetch1: Log4GUI: fetch1: 33000000: 0: 100f0: <assembly>
34000000: system.cpu.writeback: Log4GUI: writeback: 34000000: 0: 100e4: flw f11, 0(x12)
34000000: system.cpu.writeback: REGISTERS
34000000: global: x0=0x00000000
34000000: global: x1=0x00011184
34000000: global: x2=0x00011204
34000000: global: x3=0x00011284
34000000: global: x4=0x00011304
34000000: global: x5=0x00011384
34000000: global: x6=0x00011404
34000000: global: x7=0x00000000
34000000: global: x8=0x00000000
34000000: global: x9=0x00000000
34000000: global: x10=0x00000000
34000000: global: x11=0x00000001
34000000: global: x12=0x00011485
34000000: global: x13=0x00000000
34000000: global: x14=0x00000000
34000000: global: x15=0x00000000
34000000: global: x16=0x00000000
34000000: global: x17=0x00000000
34000000: global: x18=0x00000000
34000000: global: x19=0x00000000
34000000: global: x20=0x00000000
34000000: global: x21=0x00000000
34000000: global: x22=0x00000000
34000000: global: x23=0x00000000
34000000: global: x24=0x00000000
34000000: global: x25=0x00000000
34000000: global: x26=0x00000000
34000000: global: x27=0x00000000
34000000: global: x28=0x00000000
34000000: global: x29=0x00000000
34000000: global: x30=0x00000000
34000000: global: x31=0x00000000
34000000: global: f0=0x00000000
34000000: global: f1=0x40200000
34000000: global: f2=0x00000000
34000000: global: f3=0x00000000
34000000: global: f4=0x00000000
34000000: global: f5=0x00000000
34000000: global: f6=0x00000000
34000000: global: f7=0x00000000
34000000: global: f8=0x00000000
34000000: global: f9=0x00000000
34000000: global: f10=0x00000000
34000000: global: f11=0x3f800000
34000000: global: f12=0x00000000
34000000: global: f13=0x00000000
34000000: global: f14=0x00000000
34000000: global: f15=0x00000000
34000000: global: f16=0x00000000
34000000: global: f17=0x00000000
34000000: global: f18=0x00000000
34000000: global: f19=0x00000000
34000000: global: f20=0x00000000
34000000: global: f21=0x00000000
34000000: global: f22=0x00000000
34000000: global: f23=0x00000000
34000000: global: f24=0x00000000
34000000: global: f25=0x00000000
34000000: global: f26=0x00000000
34000000: global: f27=0x00000000
34000000: global: f28=0x00000000
34000000: global: f29=0x00000000
34000000: global: f30=0x00000000
34000000: global: f31=0x00000000
34000000: system.cpu.memory: Log4GUI: memory: 34000000: 0: 100e8: addi x7, x0, 31
34000000: system.cpu.execute: Log4GUI: execute: 34000000: 0: 100ec: slli x9, x7, 2: 0
34000000: system.cpu.decode: Log4GUI: decode: 34000000: 0: 100f0: blt x7, x0, 136
34000000: system.cpu.fetch1: Log4GUI: fetch1: 34000000: 0: 100f4: <assembly>
35000000: system.cpu.writeback: Log4GUI: writeback: 35000000: 0: 100e8: addi x7, x0, 31
35000000: system.cpu.writeback: REGISTERS
35000000: global: x0=0x00000000
35000000: global: x1=0x00011184
35000000: global: x2=0x00011204
35000000: global: x3=0x00011284
35000000: global: x4=0x00011304
35000000: global: x5=0x00011384
35000000: global: x6=0x00011404
35000000: global: x7=0x0000001f
35000000: global: x8=0x00000000
35000000: global: x9=0x00000000
35000000: global: x10=0x00000000
35000000: global: x11=0x00000001
35000000: global: x12=0x00011485
35000000: global: x13=0x00000000
35000000: global: x14=0x00000000
35000000: global: x15=0x00000000
35000000: global: x16=0x00000000
35000000: global: x17=0x00000000
35000000: global: x18=0x00000000
35000000: global: x19=0x00000000
35000000: global: x20=0x00000000
35000000: global: x21=0x00000000
35000000: global: x22=0x00000000
35000000: global: x23=0x00000000
35000000: global: x24=0x00000000
35000000: global: x25=0x00000000
35000000: global: x26=0x00000000
35000000: global: x27=0x00000000
35000000: global: x28=0x00000000
35000000: global: x29=0x00000000
35000000: global: x30=0x00000000
35000000: global: x31=0x00000000
35000000: global: f0=0x00000000
35000000: global: f1=0x40200000
35000000: global: f2=0x00000000
35000000: global: f3=0x00000000
35000000: global: f4=0x00000000
35000000: global: f5=0x00000000
35000000: global: f6=0x00000000
35000000: global: f7=0x00000000
35000000: global: f8=0x00000000
35000000: global: f9=0x00000000
35000000: global: f10=0x00000000
35000000: global: f11=0x3f800000
35000000: global: f12=0x00000000
35000000: global: f13=0x00000000
35000000: global: f14=0x00000000
35000000: global: f15=0x00000000
35000000: global: f16=0x00000000
35000000: global: f17=0x00000000
35000000: global: f18=0x00000000
35000000: global: f19=0x00000000
35000000: global: f20=0x00000000
35000000: global: f21=0x00000000
35000000: global: f22=0x00000000
35000000: global: f23=0x00000000
35000000: global: f24=0x00000000
35000000: global: f25=0x00000000
35000000: global: f26=0x00000000
35000000: global: f27=0x00000000
35000000: global: f28=0x00000000
35000000: global: f29=0x00000000
35000000: global: f30=0x00000000
35000000: global: f31=0x00000000
35000000: system.cpu.memory: Log4GUI: memory: 35000000: 0: 100ec: slli x9, x7, 2
35000000: system.cpu.execute: Log4GUI: execute: 35000000: 0: 100f0: blt x7, x0, 136: 0
35000000: system.cpu.decode: Log4GUI: decode: 35000000: 0: 100f4: add x10, x9, x1
35000000: system.cpu.fetch1: Log4GUI: fetch1: 35000000: 0: 100f8: <assembly>
36000000: system.cpu.writeback: Log4GUI: writeback: 36000000: 0: 100ec: slli x9, x7, 2
36000000: system.cpu.writeback: REGISTERS
36000000: global: x0=0x00000000
36000000: global: x1=0x00011184
36000000: global: x2=0x00011204
36000000: global: x3=0x00011284
36000000: global: x4=0x00011304
36000000: global: x5=0x00011384
36000000: global: x6=0x00011404
36000000: global: x7=0x0000001f
36000000: global: x8=0x00000000
36000000: global: x9=0x0000007c
36000000: global: x10=0x00000000
36000000: global: x11=0x00000001
36000000: global: x12=0x00011485
36000000: global: x13=0x00000000
36000000: global: x14=0x00000000
36000000: global: x15=0x00000000
36000000: global: x16=0x00000000
36000000: global: x17=0x00000000
36000000: global: x18=0x00000000
36000000: global: x19=0x00000000
36000000: global: x20=0x00000000
36000000: global: x21=0x00000000
36000000: global: x22=0x00000000
36000000: global: x23=0x00000000
36000000: global: x24=0x00000000
36000000: global: x25=0x00000000
36000000: global: x26=0x00000000
36000000: global: x27=0x00000000
36000000: global: x28=0x00000000
36000000: global: x29=0x00000000
36000000: global: x30=0x00000000
36000000: global: x31=0x00000000
36000000: global: f0=0x00000000
36000000: global: f1=0x40200000
36000000: global: f2=0x00000000
36000000: global: f3=0x00000000
36000000: global: f4=0x00000000
36000000: global: f5=0x00000000
36000000: global: f6=0x00000000
36000000: global: f7=0x00000000
36000000: global: f8=0x00000000
36000000: global: f9=0x00000000
36000000: global: f10=0x00000000
36000000: global: f11=0x3f800000
36000000: global: f12=0x00000000
36000000: global: f13=0x00000000
36000000: global: f14=0x00000000
36000000: global: f15=0x00000000
36000000: global: f16=0x00000000
36000000: global: f17=0x00000000
36000000: global: f18=0x00000000
36000000: global: f19=0x00000000
36000000: global: f20=0x00000000
36000000: global: f21=0x00000000
36000000: global: f22=0x00000000
36000000: global: f23=0x00000000
36000000: global: f24=0x00000000
36000000: global: f25=0x00000000
36000000: global: f26=0x00000000
36000000: global: f27=0x00000000
36000000: global: f28=0x00000000
36000000: global: f29=0x00000000
36000000: global: f30=0x00000000
36000000: global: f31=0x00000000
36000000: system.cpu.memory: Log4GUI: memory: 36000000: 0: 100f0: blt x7, x0, 136
36000000: system.cpu.execute: Log4GUI: execute: 36000000: 0: 100f4: add x10, x9, x1: 0
36000000: system.cpu.decode: Log4GUI: decode: 36000000: 0: 100f8: flw f1, 0(x10)
36000000: system.cpu.fetch1: Log4GUI: fetch1: 36000000: 0: 100fc: <assembly>
37000000: system.cpu.writeback: Log4GUI: writeback: 37000000: 0: 100f0: blt x7, x0, 136
37000000: system.cpu.writeback: REGISTERS
37000000: global: x0=0x00000000
37000000: global: x1=0x00011184
37000000: global: x2=0x00011204
37000000: global: x3=0x00011284
37000000: global: x4=0x00011304
37000000: global: x5=0x00011384
37000000: global: x6=0x00011404
37000000: global: x7=0x0000001f
37000000: global: x8=0x00000000
37000000: global: x9=0x0000007c
37000000: global: x10=0x00000000
37000000: global: x11=0x00000001
37000000: global: x12=0x00011485
37000000: global: x13=0x00000000
37000000: global: x14=0x00000000
37000000: global: x15=0x00000000
37000000: global: x16=0x00000000
37000000: global: x17=0x00000000
37000000: global: x18=0x00000000
37000000: global: x19=0x00000000
37000000: global: x20=0x00000000
37000000: global: x21=0x00000000
37000000: global: x22=0x00000000
37000000: global: x23=0x00000000
37000000: global: x24=0x00000000
37000000: global: x25=0x00000000
37000000: global: x26=0x00000000
37000000: global: x27=0x00000000
37000000: global: x28=0x00000000
37000000: global: x29=0x00000000
37000000: global: x30=0x00000000
37000000: global: x31=0x00000000
37000000: global: f0=0x00000000
37000000: global: f1=0x40200000
37000000: global: f2=0x00000000
37000000: global: f3=0x00000000
37000000: global: f4=0x00000000
37000000: global: f5=0x00000000
37000000: global: f6=0x00000000
37000000: global: f7=0x00000000
37000000: global: f8=0x00000000
37000000: global: f9=0x00000000
37000000: global: f10=0x00000000
37000000: global: f11=0x3f800000
37000000: global: f12=0x00000000
37000000: global: f13=0x00000000
37000000: global: f14=0x00000000
37000000: global: f15=0x00000000
37000000: global: f16=0x00000000
37000000: global: f17=0x00000000
37000000: global: f18=0x00000000
37000000: global: f19=0x00000000
37000000: global: f20=0x00000000
37000000: global: f21=0x00000000
37000000: global: f22=0x00000000
37000000: global: f23=0x00000000
37000000: global: f24=0x00000000
37000000: global: f25=0x00000000
37000000: global: f26=0x00000000
37000000: global: f27=0x00000000
37000000: global: f28=0x00000000
37000000: global: f29=0x00000000
37000000: global: f30=0x00000000
37000000: global: f31=0x00000000
37000000: system.cpu.memory: Log4GUI: memory: 37000000: 0: 100f4: add x10, x9, x1
37000000: system.cpu.execute: Log4GUI: execute: 37000000: 0: 100f8: flw f1, 0(x10): 0
37000000: system.cpu.decode: Log4GUI: decode: 37000000: 0: 100fc: add x10, x9, x2
37000000: system.cpu.fetch1: Log4GUI: fetch1: 37000000: 0: 10100: <assembly>
38000000: system.cpu.writeback: Log4GUI: writeback: 38000000: 0: 100f4: add x10, x9, x1
38000000: system.cpu.writeback: REGISTERS
38000000: global: x0=0x00000000
38000000: global: x1=0x00011184
38000000: global: x2=0x00011204
38000000: global: x3=0x00011284
38000000: global: x4=0x00011304
38000000: global: x5=0x00011384
38000000: global: x6=0x00011404
38000000: global: x7=0x0000001f
38000000: global: x8=0x00000000
38000000: global: x9=0x0000007c
38000000: global: x10=0x00011200
38000000: global: x11=0x00000001
38000000: global: x12=0x00011485
38000000: global: x13=0x00000000
38000000: global: x14=0x00000000
38000000: global: x15=0x00000000
38000000: global: x16=0x00000000
38000000: global: x17=0x00000000
38000000: global: x18=0x00000000
38000000: global: x19=0x00000000
38000000: global: x20=0x00000000
38000000: global: x21=0x00000000
38000000: global: x22=0x00000000
38000000: global: x23=0x00000000
38000000: global: x24=0x00000000
38000000: global: x25=0x00000000
38000000: global: x26=0x00000000
38000000: global: x27=0x00000000
38000000: global: x28=0x00000000
38000000: global: x29=0x00000000
38000000: global: x30=0x00000000
38000000: global: x31=0x00000000
38000000: global: f0=0x00000000
38000000: global: f1=0x40200000
38000000: global: f2=0x00000000
38000000: global: f3=0x00000000
38000000: global: f4=0x00000000
38000000: global: f5=0x00000000
38000000: global: f6=0x00000000
38000000: global: f7=0x00000000
38000000: global: f8=0x00000000
38000000: global: f9=0x00000000
38000000: global: f10=0x00000000
38000000: global: f11=0x3f800000
38000000: global: f12=0x00000000
38000000: global: f13=0x00000000
38000000: global: f14=0x00000000
38000000: global: f15=0x00000000
38000000: global: f16=0x00000000
38000000: global: f17=0x00000000
38000000: global: f18=0x00000000
38000000: global: f19=0x00000000
38000000: global: f20=0x00000000
38000000: global: f21=0x00000000
38000000: global: f22=0x00000000
38000000: global: f23=0x00000000
38000000: global: f24=0x00000000
38000000: global: f25=0x00000000
38000000: global: f26=0x00000000
38000000: global: f27=0x00000000
38000000: global: f28=0x00000000
38000000: global: f29=0x00000000
38000000: global: f30=0x00000000
38000000: global: f31=0x00000000
38000000: system.cpu.memory: Log4GUI: memory: 38000000: 0: 100f8: flw f1, 0(x10)
38000000: system.cpu.execute: Log4GUI: execute: 38000000: 0: 100fc: add x10, x9, x2: 0
38000000: system.cpu.decode: Log4GUI: decode: 38000000: 0: 10100: flw f2, 0(x10)
38000000: system.cpu.fetch1: Log4GUI: fetch1: 38000000: 0: 10104: <assembly>
39000000: system.cpu.writeback: Log4GUI: writeback: 39000000: 0: 100f8: flw f1, 0(x10)
39000000: system.cpu.writeback: REGISTERS
39000000: global: x0=0x00000000
39000000: global: x1=0x00011184
39000000: global: x2=0x00011204
39000000: global: x3=0x00011284
39000000: global: x4=0x00011304
39000000: global: x5=0x00011384
39000000: global: x6=0x00011404
39000000: global: x7=0x0000001f
39000000: global: x8=0x00000000
39000000: global: x9=0x0000007c
39000000: global: x10=0x00011200
39000000: global: x11=0x00000001
39000000: global: x12=0x00011485
39000000: global: x13=0x00000000
39000000: global: x14=0x00000000
39000000: global: x15=0x00000000
39000000: global: x16=0x00000000
39000000: global: x17=0x00000000
39000000: global: x18=0x00000000
39000000: global: x19=0x00000000
39000000: global: x20=0x00000000
39000000: global: x21=0x00000000
39000000: global: x22=0x00000000
39000000: global: x23=0x00000000
39000000: global: x24=0x00000000
39000000: global: x25=0x00000000
39000000: global: x26=0x00000000
39000000: global: x27=0x00000000
39000000: global: x28=0x00000000
39000000: global: x29=0x00000000
39000000: global: x30=0x00000000
39000000: global: x31=0x00000000
39000000: global: f0=0x00000000
39000000: global: f1=0x40cccccd
39000000: global: f2=0x00000000
39000000: global: f3=0x00000000
39000000: global: f4=0x00000000
39000000: global: f5=0x00000000
39000000: global: f6=0x00000000
39000000: global: f7=0x00000000
39000000: global: f8=0x00000000
39000000: global: f9=0x00000000
39000000: global: f10=0x00000000
39000000: global: f11=0x3f800000
39000000: global: f12=0x00000000
39000000: global: f13=0x00000000
39000000: global: f14=0x00000000
39000000: global: f15=0x00000000
39000000: global: f16=0x00000000
39000000: global: f17=0x00000000
39000000: global: f18=0x00000000
39000000: global: f19=0x00000000
39000000: global: f20=0x00000000
39000000: global: f21=0x00000000
39000000: global: f22=0x00000000
39000000: global: f23=0x00000000
39000000: global: f24=0x00000000
39000000: global: f25=0x00000000
39000000: global: f26=0x00000000
39000000: global: f27=0x00000000
39000000: global: f28=0x00000000
39000000: global: f29=0x00000000
39000000: global: f30=0x00000000
39000000: global: f31=0x00000000
39000000: system.cpu.memory: Log4GUI: memory: 39000000: 0: 100fc: add x10, x9, x2
39000000: system.cpu.execute: Log4GUI: execute: 39000000: 0: 10100: flw f2, 0(x10): 0
39000000: system.cpu.decode: Log4GUI: decode: 39000000: 0: 10104: add x10, x9, x3
39000000: system.cpu.fetch1: Log4GUI: fetch1: 39000000: 0: 10108: <assembly>
40000000: system.cpu.writeback: Log4GUI: writeback: 40000000: 0: 100fc: add x10, x9, x2
40000000: system.cpu.writeback: REGISTERS
40000000: global: x0=0x00000000
40000000: global: x1=0x00011184
40000000: global: x2=0x00011204
40000000: global: x3=0x00011284
40000000: global: x4=0x00011304
40000000: global: x5=0x00011384
40000000: global: x6=0x00011404
40000000: global: x7=0x0000001f
40000000: global: x8=0x00000000
40000000: global: x9=0x0000007c
40000000: global: x10=0x00011280
40000000: global: x11=0x00000001
40000000: global: x12=0x00011485
40000000: global: x13=0x00000000
40000000: global: x14=0x00000000
40000000: global: x15=0x00000000
40000000: global: x16=0x00000000
40000000: global: x17=0x00000000
40000000: global: x18=0x00000000
40000000: global: x19=0x00000000
40000000: global: x20=0x00000000
40000000: global: x21=0x00000000
40000000: global: x22=0x00000000
40000000: global: x23=0x00000000
40000000: global: x24=0x00000000
40000000: global: x25=0x00000000
40000000: global: x26=0x00000000
40000000: global: x27=0x00000000
40000000: global: x28=0x00000000
40000000: global: x29=0x00000000
40000000: global: x30=0x00000000
40000000: global: x31=0x00000000
40000000: global: f0=0x00000000
40000000: global: f1=0x40cccccd
40000000: global: f2=0x00000000
40000000: global: f3=0x00000000
40000000: global: f4=0x00000000
40000000: global: f5=0x00000000
40000000: global: f6=0x00000000
40000000: global: f7=0x00000000
40000000: global: f8=0x00000000
40000000: global: f9=0x00000000
40000000: global: f10=0x00000000
40000000: global: f11=0x3f800000
40000000: global: f12=0x00000000
40000000: global: f13=0x00000000
40000000: global: f14=0x00000000
40000000: global: f15=0x00000000
40000000: global: f16=0x00000000
40000000: global: f17=0x00000000
40000000: global: f18=0x00000000
40000000: global: f19=0x00000000
40000000: global: f20=0x00000000
40000000: global: f21=0x00000000
40000000: global: f22=0x00000000
40000000: global: f23=0x00000000
40000000: global: f24=0x00000000
40000000: global: f25=0x00000000
40000000: global: f26=0x00000000
40000000: global: f27=0x00000000
40000000: global: f28=0x00000000
40000000: global: f29=0x00000000
40000000: global: f30=0x00000000
40000000: global: f31=0x00000000
40000000: system.cpu.memory: Log4GUI: memory: 40000000: 0: 10100: flw f2, 0(x10)
40000000: system.cpu.execute: Log4GUI: execute: 40000000: 0: 10104: add x10, x9, x3: 0
40000000: system.cpu.decode: Log4GUI: decode: 40000000: 0: 10108: addi x14, x0, 3
40000000: system.cpu.fetch1: Log4GUI: fetch1: 40000000: 0: 1010c: <assembly>
41000000: system.cpu.writeback: Log4GUI: writeback: 41000000: 0: 10100: flw f2, 0(x10)
41000000: system.cpu.writeback: REGISTERS
41000000: global: x0=0x00000000
41000000: global: x1=0x00011184
41000000: global: x2=0x00011204
41000000: global: x3=0x00011284
41000000: global: x4=0x00011304
41000000: global: x5=0x00011384
41000000: global: x6=0x00011404
41000000: global: x7=0x0000001f
41000000: global: x8=0x00000000
41000000: global: x9=0x0000007c
41000000: global: x10=0x00011280
41000000: global: x11=0x00000001
41000000: global: x12=0x00011485
41000000: global: x13=0x00000000
41000000: global: x14=0x00000000
41000000: global: x15=0x00000000
41000000: global: x16=0x00000000
41000000: global: x17=0x00000000
41000000: global: x18=0x00000000
41000000: global: x19=0x00000000
41000000: global: x20=0x00000000
41000000: global: x21=0x00000000
41000000: global: x22=0x00000000
41000000: global: x23=0x00000000
41000000: global: x24=0x00000000
41000000: global: x25=0x00000000
41000000: global: x26=0x00000000
41000000: global: x27=0x00000000
41000000: global: x28=0x00000000
41000000: global: x29=0x00000000
41000000: global: x30=0x00000000
41000000: global: x31=0x00000000
41000000: global: f0=0x00000000
41000000: global: f1=0x40cccccd
41000000: global: f2=0x40900000
41000000: global: f3=0x00000000
41000000: global: f4=0x00000000
41000000: global: f5=0x00000000
41000000: global: f6=0x00000000
41000000: global: f7=0x00000000
41000000: global: f8=0x00000000
41000000: global: f9=0x00000000
41000000: global: f10=0x00000000
41000000: global: f11=0x3f800000
41000000: global: f12=0x00000000
41000000: global: f13=0x00000000
41000000: global: f14=0x00000000
41000000: global: f15=0x00000000
41000000: global: f16=0x00000000
41000000: global: f17=0x00000000
41000000: global: f18=0x00000000
41000000: global: f19=0x00000000
41000000: global: f20=0x00000000
41000000: global: f21=0x00000000
41000000: global: f22=0x00000000
41000000: global: f23=0x00000000
41000000: global: f24=0x00000000
41000000: global: f25=0x00000000
41000000: global: f26=0x00000000
41000000: global: f27=0x00000000
41000000: global: f28=0x00000000
41000000: global: f29=0x00000000
41000000: global: f30=0x00000000
41000000: global: f31=0x00000000
41000000: system.cpu.memory: Log4GUI: memory: 41000000: 0: 10104: add x10, x9, x3
41000000: system.cpu.execute: Log4GUI: execute: 41000000: 0: 10108: addi x14, x0, 3: 0
41000000: system.cpu.decode: Log4GUI: decode: 41000000: 0: 1010c: rem x13, x7, x14
41000000: system.cpu.fetch1: Log4GUI: fetch1: 41000000: 0: 10110: <assembly>
42000000: system.cpu.writeback: Log4GUI: writeback: 42000000: 0: 10104: add x10, x9, x3
42000000: system.cpu.writeback: REGISTERS
42000000: global: x0=0x00000000
42000000: global: x1=0x00011184
42000000: global: x2=0x00011204
42000000: global: x3=0x00011284
42000000: global: x4=0x00011304
42000000: global: x5=0x00011384
42000000: global: x6=0x00011404
42000000: global: x7=0x0000001f
42000000: global: x8=0x00000000
42000000: global: x9=0x0000007c
42000000: global: x10=0x00011300
42000000: global: x11=0x00000001
42000000: global: x12=0x00011485
42000000: global: x13=0x00000000
42000000: global: x14=0x00000000
42000000: global: x15=0x00000000
42000000: global: x16=0x00000000
42000000: global: x17=0x00000000
42000000: global: x18=0x00000000
42000000: global: x19=0x00000000
42000000: global: x20=0x00000000
42000000: global: x21=0x00000000
42000000: global: x22=0x00000000
42000000: global: x23=0x00000000
42000000: global: x24=0x00000000
42000000: global: x25=0x00000000
42000000: global: x26=0x00000000
42000000: global: x27=0x00000000
42000000: global: x28=0x00000000
42000000: global: x29=0x00000000
42000000: global: x30=0x00000000
42000000: global: x31=0x00000000
42000000: global: f0=0x00000000
42000000: global: f1=0x40cccccd
42000000: global: f2=0x40900000
42000000: global: f3=0x00000000
42000000: global: f4=0x00000000
42000000: global: f5=0x00000000
42000000: global: f6=0x00000000
42000000: global: f7=0x00000000
42000000: global: f8=0x00000000
42000000: global: f9=0x00000000
42000000: global: f10=0x00000000
42000000: global: f11=0x3f800000
42000000: global: f12=0x00000000
42000000: global: f13=0x00000000
42000000: global: f14=0x00000000
42000000: global: f15=0x00000000
42000000: global: f16=0x00000000
42000000: global: f17=0x00000000
42000000: global: f18=0x00000000
42000000: global: f19=0x00000000
42000000: global: f20=0x00000000
42000000: global: f21=0x00000000
42000000: global: f22=0x00000000
42000000: global: f23=0x00000000
42000000: global: f24=0x00000000
42000000: global: f25=0x00000000
42000000: global: f26=0x00000000
42000000: global: f27=0x00000000
42000000: global: f28=0x00000000
42000000: global: f29=0x00000000
42000000: global: f30=0x00000000
42000000: global: f31=0x00000000
42000000: system.cpu.memory: Log4GUI: memory: 42000000: 0: 10108: addi x14, x0, 3
42000000: system.cpu.execute: Log4GUI: execute: 42000000: 0: 1010c: rem x13, x7, x14: 2
42000000: system.cpu.decode: Log4GUI: decode: 42000000: 0: 10110: flw f3, 0(x10)
42000000: system.cpu.fetch1: Log4GUI: fetch1: 42000000: 0: 10114: <assembly>
43000000: system.cpu.writeback: Log4GUI: writeback: 43000000: 0: 10108: addi x14, x0, 3
43000000: system.cpu.writeback: REGISTERS
43000000: global: x0=0x00000000
43000000: global: x1=0x00011184
43000000: global: x2=0x00011204
43000000: global: x3=0x00011284
43000000: global: x4=0x00011304
43000000: global: x5=0x00011384
43000000: global: x6=0x00011404
43000000: global: x7=0x0000001f
43000000: global: x8=0x00000000
43000000: global: x9=0x0000007c
43000000: global: x10=0x00011300
43000000: global: x11=0x00000001
43000000: global: x12=0x00011485
43000000: global: x13=0x00000000
43000000: global: x14=0x00000003
43000000: global: x15=0x00000000
43000000: global: x16=0x00000000
43000000: global: x17=0x00000000
43000000: global: x18=0x00000000
43000000: global: x19=0x00000000
43000000: global: x20=0x00000000
43000000: global: x21=0x00000000
43000000: global: x22=0x00000000
43000000: global: x23=0x00000000
43000000: global: x24=0x00000000
43000000: global: x25=0x00000000
43000000: global: x26=0x00000000
43000000: global: x27=0x00000000
43000000: global: x28=0x00000000
43000000: global: x29=0x00000000
43000000: global: x30=0x00000000
43000000: global: x31=0x00000000
43000000: global: f0=0x00000000
43000000: global: f1=0x40cccccd
43000000: global: f2=0x40900000
43000000: global: f3=0x00000000
43000000: global: f4=0x00000000
43000000: global: f5=0x00000000
43000000: global: f6=0x00000000
43000000: global: f7=0x00000000
43000000: global: f8=0x00000000
43000000: global: f9=0x00000000
43000000: global: f10=0x00000000
43000000: global: f11=0x3f800000
43000000: global: f12=0x00000000
43000000: global: f13=0x00000000
43000000: global: f14=0x00000000
43000000: global: f15=0x00000000
43000000: global: f16=0x00000000
43000000: global: f17=0x00000000
43000000: global: f18=0x00000000
43000000: global: f19=0x00000000
43000000: global: f20=0x00000000
43000000: global: f21=0x00000000
43000000: global: f22=0x00000000
43000000: global: f23=0x00000000
43000000: global: f24=0x00000000
43000000: global: f25=0x00000000
43000000: global: f26=0x00000000
43000000: global: f27=0x00000000
43000000: global: f28=0x00000000
43000000: global: f29=0x00000000
43000000: global: f30=0x00000000
43000000: global: f31=0x00000000
43000000: system.cpu.memory: Log4GUI: memory: 43000000: 0: 1010c: rem x13, x7, x14
43000000: system.cpu.execute: Log4GUI: execute: 43000000: 0: 10110: flw f3, 0(x10): 0
43000000: system.cpu.decode: Log4GUI: decode: 43000000: 0: 10114: bne x13, x0, 24
43000000: system.cpu.fetch1: Log4GUI: fetch1: 43000000: 0: 10118: <assembly>
44000000: system.cpu.writeback: Log4GUI: writeback: 44000000: 0: 1010c: rem x13, x7, x14
44000000: system.cpu.writeback: REGISTERS
44000000: global: x0=0x00000000
44000000: global: x1=0x00011184
44000000: global: x2=0x00011204
44000000: global: x3=0x00011284
44000000: global: x4=0x00011304
44000000: global: x5=0x00011384
44000000: global: x6=0x00011404
44000000: global: x7=0x0000001f
44000000: global: x8=0x00000000
44000000: global: x9=0x0000007c
44000000: global: x10=0x00011300
44000000: global: x11=0x00000001
44000000: global: x12=0x00011485
44000000: global: x13=0x00000001
44000000: global: x14=0x00000003
44000000: global: x15=0x00000000
44000000: global: x16=0x00000000
44000000: global: x17=0x00000000
[...]
2121000000: system.cpu.execute: Log4GUI: execute: 2121000000: 0: 10160: fmul_s f9, f9, f8: 4
2121000000: system.cpu.decode: Log4GUI: decode: 2121000000: 1: 1016c: addi x7, x7, -1
2121000000: system.cpu.fetch1: Log4GUI: fetch1: 2121000000: 1: 10170: <assembly>
2122000000: system.cpu.execute: Log4GUI: execute: 2122000000: 0: 10160: fmul_s f9, f9, f8: 4
2122000000: system.cpu.execute: Log4GUI: execute: 2122000000: 1: 10168: fsw f9, 0(x8): 0
2122000000: system.cpu.decode: Log4GUI: decode: 2122000000: 1: 1016c: addi x7, x7, -1
2122000000: system.cpu.fetch1: Log4GUI: fetch1: 2122000000: 1: 10170: <assembly>
2123000000: system.cpu.memory: Log4GUI: memory: 2123000000: 0: 10160: fmul_s f9, f9, f8
2123000000: system.cpu.decode: Log4GUI: decode: 2123000000: 1: 1016c: addi x7, x7, -1
2123000000: system.cpu.fetch1: Log4GUI: fetch1: 2123000000: 1: 10170: <assembly>
2124000000: system.cpu.writeback: Log4GUI: writeback: 2124000000: 0: 10160: fmul_s f9, f9, f8
2124000000: system.cpu.writeback: REGISTERS
2124000000: global: x0=0x00000000
2124000000: global: x1=0x00011184
2124000000: global: x2=0x00011204
2124000000: global: x3=0x00011284
2124000000: global: x4=0x00011304
2124000000: global: x5=0x00011384
2124000000: global: x6=0x00011404
2124000000: global: x7=0x00000000
2124000000: global: x8=0x00011404
2124000000: global: x9=0x00000000
2124000000: global: x10=0x00011284
2124000000: global: x11=0xfffffffe
2124000000: global: x12=0xfffffffd
2124000000: global: x13=0x00000000
2124000000: global: x14=0x00000003
2124000000: global: x15=0x00000000
2124000000: global: x16=0x00000000
2124000000: global: x17=0x00000000
2124000000: global: x18=0x00000000
2124000000: global: x19=0x00000000
2124000000: global: x20=0x00000000
2124000000: global: x21=0x00000000
2124000000: global: x22=0x00000000
2124000000: global: x23=0x00000000
2124000000: global: x24=0x00000000
2124000000: global: x25=0x00000000
2124000000: global: x26=0x00000000
2124000000: global: x27=0x00000000
2124000000: global: x28=0x00000000
2124000000: global: x29=0x00000000
2124000000: global: x30=0x00000000
2124000000: global: x31=0x00000000
2124000000: global: f0=0x00000000
2124000000: global: f1=0x40933333
2124000000: global: f2=0x4019999a
2124000000: global: f3=0x40200000
2124000000: global: f4=0x00000000
2124000000: global: f5=0x00000000
2124000000: global: f6=0x00000000
2124000000: global: f7=0x00000000
2124000000: global: f8=0xc09900ae
2124000000: global: f9=0x42866328
2124000000: global: f10=0xc11740da
2124000000: global: f11=0x3f800000
2124000000: global: f12=0xc0400000
2124000000: global: f13=0x00000000
2124000000: global: f14=0x00000000
2124000000: global: f15=0x00000000
2124000000: global: f16=0x00000000
2124000000: global: f17=0x00000000
2124000000: global: f18=0x00000000
2124000000: global: f19=0x00000000
2124000000: global: f20=0x00000000
2124000000: global: f21=0x00000000
2124000000: global: f22=0x00000000
2124000000: global: f23=0x00000000
2124000000: global: f24=0x00000000
2124000000: global: f25=0x00000000
2124000000: global: f26=0x00000000
2124000000: global: f27=0x00000000
2124000000: global: f28=0x00000000
2124000000: global: f29=0x00000000
2124000000: global: f30=0x00000000
2124000000: global: f31=0x00000000
2124000000: system.cpu.memory: Log4GUI: memory: 2124000000: 0: 10168: fsw f9, 0(x8)
2124000000: system.cpu.execute: Log4GUI: execute: 2124000000: 0: 1016c: addi x7, x7, -1: 0
2124000000: system.cpu.decode: Log4GUI: decode: 2124000000: 0: 10170: slli x9, x7, 2
2124000000: system.cpu.fetch1: Log4GUI: fetch1: 2124000000: 0: 10174: <assembly>
2125000000: system.cpu.writeback: Log4GUI: writeback: 2125000000: 0: 10168: fsw f9, 0(x8)
2125000000: system.cpu.writeback: REGISTERS
2125000000: global: x0=0x00000000
2125000000: global: x1=0x00011184
2125000000: global: x2=0x00011204
2125000000: global: x3=0x00011284
2125000000: global: x4=0x00011304
2125000000: global: x5=0x00011384
2125000000: global: x6=0x00011404
2125000000: global: x7=0x00000000
2125000000: global: x8=0x00011404
2125000000: global: x9=0x00000000
2125000000: global: x10=0x00011284
2125000000: global: x11=0xfffffffe
2125000000: global: x12=0xfffffffd
2125000000: global: x13=0x00000000
2125000000: global: x14=0x00000003
2125000000: global: x15=0x00000000
2125000000: global: x16=0x00000000
2125000000: global: x17=0x00000000
2125000000: global: x18=0x00000000
2125000000: global: x19=0x00000000
2125000000: global: x20=0x00000000
2125000000: global: x21=0x00000000
2125000000: global: x22=0x00000000
2125000000: global: x23=0x00000000
2125000000: global: x24=0x00000000
2125000000: global: x25=0x00000000
2125000000: global: x26=0x00000000
2125000000: global: x27=0x00000000
2125000000: global: x28=0x00000000
2125000000: global: x29=0x00000000
2125000000: global: x30=0x00000000
2125000000: global: x31=0x00000000
2125000000: global: f0=0x00000000
2125000000: global: f1=0x40933333
2125000000: global: f2=0x4019999a
2125000000: global: f3=0x40200000
2125000000: global: f4=0x00000000
2125000000: global: f5=0x00000000
2125000000: global: f6=0x00000000
2125000000: global: f7=0x00000000
2125000000: global: f8=0xc09900ae
2125000000: global: f9=0x42866328
2125000000: global: f10=0xc11740da
2125000000: global: f11=0x3f800000
2125000000: global: f12=0xc0400000
2125000000: global: f13=0x00000000
2125000000: global: f14=0x00000000
2125000000: global: f15=0x00000000
2125000000: global: f16=0x00000000
2125000000: global: f17=0x00000000
2125000000: global: f18=0x00000000
2125000000: global: f19=0x00000000
2125000000: global: f20=0x00000000
2125000000: global: f21=0x00000000
2125000000: global: f22=0x00000000
2125000000: global: f23=0x00000000
2125000000: global: f24=0x00000000
2125000000: global: f25=0x00000000
2125000000: global: f26=0x00000000
2125000000: global: f27=0x00000000
2125000000: global: f28=0x00000000
2125000000: global: f29=0x00000000
2125000000: global: f30=0x00000000
2125000000: global: f31=0x00000000
2125000000: system.cpu.memory: Log4GUI: memory: 2125000000: 0: 1016c: addi x7, x7, -1
2125000000: system.cpu.execute: Log4GUI: execute: 2125000000: 0: 10170: slli x9, x7, 2: 0
2125000000: system.cpu.decode: Log4GUI: decode: 2125000000: 0: 10174: jal x0, -132
2125000000: system.cpu.fetch1: Log4GUI: fetch1: 2125000000: 0: 10178: <assembly>
2126000000: system.cpu.writeback: Log4GUI: writeback: 2126000000: 0: 1016c: addi x7, x7, -1
2126000000: system.cpu.writeback: REGISTERS
2126000000: global: x0=0x00000000
2126000000: global: x1=0x00011184
2126000000: global: x2=0x00011204
2126000000: global: x3=0x00011284
2126000000: global: x4=0x00011304
2126000000: global: x5=0x00011384
2126000000: global: x6=0x00011404
2126000000: global: x7=0xffffffff
2126000000: global: x8=0x00011404
2126000000: global: x9=0x00000000
2126000000: global: x10=0x00011284
2126000000: global: x11=0xfffffffe
2126000000: global: x12=0xfffffffd
2126000000: global: x13=0x00000000
2126000000: global: x14=0x00000003
2126000000: global: x15=0x00000000
2126000000: global: x16=0x00000000
2126000000: global: x17=0x00000000
2126000000: global: x18=0x00000000
2126000000: global: x19=0x00000000
2126000000: global: x20=0x00000000
2126000000: global: x21=0x00000000
2126000000: global: x22=0x00000000
2126000000: global: x23=0x00000000
2126000000: global: x24=0x00000000
2126000000: global: x25=0x00000000
2126000000: global: x26=0x00000000
2126000000: global: x27=0x00000000
2126000000: global: x28=0x00000000
2126000000: global: x29=0x00000000
2126000000: global: x30=0x00000000
2126000000: global: x31=0x00000000
2126000000: global: f0=0x00000000
2126000000: global: f1=0x40933333
2126000000: global: f2=0x4019999a
2126000000: global: f3=0x40200000
2126000000: global: f4=0x00000000
2126000000: global: f5=0x00000000
2126000000: global: f6=0x00000000
2126000000: global: f7=0x00000000
2126000000: global: f8=0xc09900ae
2126000000: global: f9=0x42866328
2126000000: global: f10=0xc11740da
2126000000: global: f11=0x3f800000
2126000000: global: f12=0xc0400000
2126000000: global: f13=0x00000000
2126000000: global: f14=0x00000000
2126000000: global: f15=0x00000000
2126000000: global: f16=0x00000000
2126000000: global: f17=0x00000000
2126000000: global: f18=0x00000000
2126000000: global: f19=0x00000000
2126000000: global: f20=0x00000000
2126000000: global: f21=0x00000000
2126000000: global: f22=0x00000000
2126000000: global: f23=0x00000000
2126000000: global: f24=0x00000000
2126000000: global: f25=0x00000000
2126000000: global: f26=0x00000000
2126000000: global: f27=0x00000000
2126000000: global: f28=0x00000000
2126000000: global: f29=0x00000000
2126000000: global: f30=0x00000000
2126000000: global: f31=0x00000000
2126000000: system.cpu.memory: Log4GUI: memory: 2126000000: 0: 10170: slli x9, x7, 2
2126000000: system.cpu.execute: Log4GUI: execute: 2126000000: 0: 10174: jal x0, -132: 0
2126000000: system.cpu.fetch1: Log4GUI: fetch1: 2126000000: 0: 100f0: <assembly>
2127000000: system.cpu.writeback: Log4GUI: writeback: 2127000000: 0: 10170: slli x9, x7, 2
2127000000: system.cpu.writeback: REGISTERS
2127000000: global: x0=0x00000000
2127000000: global: x1=0x00011184
2127000000: global: x2=0x00011204
2127000000: global: x3=0x00011284
2127000000: global: x4=0x00011304
2127000000: global: x5=0x00011384
2127000000: global: x6=0x00011404
2127000000: global: x7=0xffffffff
2127000000: global: x8=0x00011404
2127000000: global: x9=0xfffffffc
2127000000: global: x10=0x00011284
2127000000: global: x11=0xfffffffe
2127000000: global: x12=0xfffffffd
2127000000: global: x13=0x00000000
2127000000: global: x14=0x00000003
2127000000: global: x15=0x00000000
2127000000: global: x16=0x00000000
2127000000: global: x17=0x00000000
2127000000: global: x18=0x00000000
2127000000: global: x19=0x00000000
2127000000: global: x20=0x00000000
2127000000: global: x21=0x00000000
2127000000: global: x22=0x00000000
2127000000: global: x23=0x00000000
2127000000: global: x24=0x00000000
2127000000: global: x25=0x00000000
2127000000: global: x26=0x00000000
2127000000: global: x27=0x00000000
2127000000: global: x28=0x00000000
2127000000: global: x29=0x00000000
2127000000: global: x30=0x00000000
2127000000: global: x31=0x00000000
2127000000: global: f0=0x00000000
2127000000: global: f1=0x40933333
2127000000: global: f2=0x4019999a
2127000000: global: f3=0x40200000
2127000000: global: f4=0x00000000
2127000000: global: f5=0x00000000
2127000000: global: f6=0x00000000
2127000000: global: f7=0x00000000
2127000000: global: f8=0xc09900ae
2127000000: global: f9=0x42866328
2127000000: global: f10=0xc11740da
2127000000: global: f11=0x3f800000
2127000000: global: f12=0xc0400000
2127000000: global: f13=0x00000000
2127000000: global: f14=0x00000000
2127000000: global: f15=0x00000000
2127000000: global: f16=0x00000000
2127000000: global: f17=0x00000000
2127000000: global: f18=0x00000000
2127000000: global: f19=0x00000000
2127000000: global: f20=0x00000000
2127000000: global: f21=0x00000000
2127000000: global: f22=0x00000000
2127000000: global: f23=0x00000000
2127000000: global: f24=0x00000000
2127000000: global: f25=0x00000000
2127000000: global: f26=0x00000000
2127000000: global: f27=0x00000000
2127000000: global: f28=0x00000000
2127000000: global: f29=0x00000000
2127000000: global: f30=0x00000000
2127000000: global: f31=0x00000000
2127000000: system.cpu.memory: Log4GUI: memory: 2127000000: 0: 10174: jal x0, -132
2127000000: system.cpu.decode: Log4GUI: decode: 2127000000: 0: 100f0: blt x7, x0, 136
2127000000: system.cpu.fetch1: Log4GUI: fetch1: 2127000000: 0: 100f4: <assembly>
2128000000: system.cpu.writeback: Log4GUI: writeback: 2128000000: 0: 10174: jal x0, -132
2128000000: system.cpu.writeback: REGISTERS
2128000000: global: x0=0x00000000
2128000000: global: x1=0x00011184
2128000000: global: x2=0x00011204
2128000000: global: x3=0x00011284
2128000000: global: x4=0x00011304
2128000000: global: x5=0x00011384
2128000000: global: x6=0x00011404
2128000000: global: x7=0xffffffff
2128000000: global: x8=0x00011404
2128000000: global: x9=0xfffffffc
2128000000: global: x10=0x00011284
2128000000: global: x11=0xfffffffe
2128000000: global: x12=0xfffffffd
2128000000: global: x13=0x00000000
2128000000: global: x14=0x00000003
2128000000: global: x15=0x00000000
2128000000: global: x16=0x00000000
2128000000: global: x17=0x00000000
2128000000: global: x18=0x00000000
2128000000: global: x19=0x00000000
2128000000: global: x20=0x00000000
2128000000: global: x21=0x00000000
2128000000: global: x22=0x00000000
2128000000: global: x23=0x00000000
2128000000: global: x24=0x00000000
2128000000: global: x25=0x00000000
2128000000: global: x26=0x00000000
2128000000: global: x27=0x00000000
2128000000: global: x28=0x00000000
2128000000: global: x29=0x00000000
2128000000: global: x30=0x00000000
2128000000: global: x31=0x00000000
2128000000: global: f0=0x00000000
2128000000: global: f1=0x40933333
2128000000: global: f2=0x4019999a
2128000000: global: f3=0x40200000
2128000000: global: f4=0x00000000
2128000000: global: f5=0x00000000
2128000000: global: f6=0x00000000
2128000000: global: f7=0x00000000
2128000000: global: f8=0xc09900ae
2128000000: global: f9=0x42866328
2128000000: global: f10=0xc11740da
2128000000: global: f11=0x3f800000
2128000000: global: f12=0xc0400000
2128000000: global: f13=0x00000000
2128000000: global: f14=0x00000000
2128000000: global: f15=0x00000000
2128000000: global: f16=0x00000000
2128000000: global: f17=0x00000000
2128000000: global: f18=0x00000000
2128000000: global: f19=0x00000000
2128000000: global: f20=0x00000000
2128000000: global: f21=0x00000000
2128000000: global: f22=0x00000000
2128000000: global: f23=0x00000000
2128000000: global: f24=0x00000000
2128000000: global: f25=0x00000000
2128000000: global: f26=0x00000000
2128000000: global: f27=0x00000000
2128000000: global: f28=0x00000000
2128000000: global: f29=0x00000000
2128000000: global: f30=0x00000000
2128000000: global: f31=0x00000000
2128000000: system.cpu.execute: Log4GUI: execute: 2128000000: 0: 100f0: blt x7, x0, 136: 0
2128000000: system.cpu.fetch1: Log4GUI: fetch1: 2128000000: 0: 10178: <assembly>
2129000000: system.cpu.memory: Log4GUI: memory: 2129000000: 0: 100f0: blt x7, x0, 136
2129000000: system.cpu.decode: Log4GUI: decode: 2129000000: 0: 10178: addi x10, x0, 0
2129000000: system.cpu.fetch1: Log4GUI: fetch1: 2129000000: 0: 1017c: <assembly>
2130000000: system.cpu.writeback: Log4GUI: writeback: 2130000000: 0: 100f0: blt x7, x0, 136
2130000000: system.cpu.writeback: REGISTERS
2130000000: global: x0=0x00000000
2130000000: global: x1=0x00011184
2130000000: global: x2=0x00011204
2130000000: global: x3=0x00011284
2130000000: global: x4=0x00011304
2130000000: global: x5=0x00011384
2130000000: global: x6=0x00011404
2130000000: global: x7=0xffffffff
2130000000: global: x8=0x00011404
2130000000: global: x9=0xfffffffc
2130000000: global: x10=0x00011284
2130000000: global: x11=0xfffffffe
2130000000: global: x12=0xfffffffd
2130000000: global: x13=0x00000000
2130000000: global: x14=0x00000003
2130000000: global: x15=0x00000000
2130000000: global: x16=0x00000000
2130000000: global: x17=0x00000000
2130000000: global: x18=0x00000000
2130000000: global: x19=0x00000000
2130000000: global: x20=0x00000000
2130000000: global: x21=0x00000000
2130000000: global: x22=0x00000000
2130000000: global: x23=0x00000000
2130000000: global: x24=0x00000000
2130000000: global: x25=0x00000000
2130000000: global: x26=0x00000000
2130000000: global: x27=0x00000000
2130000000: global: x28=0x00000000
2130000000: global: x29=0x00000000
2130000000: global: x30=0x00000000
2130000000: global: x31=0x00000000
2130000000: global: f0=0x00000000
2130000000: global: f1=0x40933333
2130000000: global: f2=0x4019999a
2130000000: global: f3=0x40200000
2130000000: global: f4=0x00000000
2130000000: global: f5=0x00000000
2130000000: global: f6=0x00000000
2130000000: global: f7=0x00000000
2130000000: global: f8=0xc09900ae
2130000000: global: f9=0x42866328
2130000000: global: f10=0xc11740da
2130000000: global: f11=0x3f800000
2130000000: global: f12=0xc0400000
2130000000: global: f13=0x00000000
2130000000: global: f14=0x00000000
2130000000: global: f15=0x00000000
2130000000: global: f16=0x00000000
2130000000: global: f17=0x00000000
2130000000: global: f18=0x00000000
2130000000: global: f19=0x00000000
2130000000: global: f20=0x00000000
2130000000: global: f21=0x00000000
2130000000: global: f22=0x00000000
2130000000: global: f23=0x00000000
2130000000: global: f24=0x00000000
2130000000: global: f25=0x00000000
2130000000: global: f26=0x00000000
2130000000: global: f27=0x00000000
2130000000: global: f28=0x00000000
2130000000: global: f29=0x00000000
2130000000: global: f30=0x00000000
2130000000: global: f31=0x00000000
2130000000: system.cpu.execute: Log4GUI: execute: 2130000000: 0: 10178: addi x10, x0, 0: 0
2130000000: system.cpu.decode: Log4GUI: decode: 2130000000: 0: 1017c: addi x17, x0, 93
2130000000: system.cpu.fetch1: Log4GUI: fetch1: 2130000000: 0: 10180: <assembly>
2131000000: system.cpu.memory: Log4GUI: memory: 2131000000: 0: 10178: addi x10, x0, 0
2131000000: system.cpu.execute: Log4GUI: execute: 2131000000: 0: 1017c: addi x17, x0, 93: 0
2131000000: system.cpu.decode: Log4GUI: decode: 2131000000: 0: 10180: ecall
2131000000: system.cpu.fetch1: Log4GUI: fetch1: 2131000000: 0: 10184: <assembly>
2132000000: system.cpu.writeback: Log4GUI: writeback: 2132000000: 0: 10178: addi x10, x0, 0
2132000000: system.cpu.writeback: REGISTERS
2132000000: global: x0=0x00000000
2132000000: global: x1=0x00011184
2132000000: global: x2=0x00011204
2132000000: global: x3=0x00011284
2132000000: global: x4=0x00011304
2132000000: global: x5=0x00011384
2132000000: global: x6=0x00011404
2132000000: global: x7=0xffffffff
2132000000: global: x8=0x00011404
2132000000: global: x9=0xfffffffc
2132000000: global: x10=0x00000000
2132000000: global: x11=0xfffffffe
2132000000: global: x12=0xfffffffd
2132000000: global: x13=0x00000000
2132000000: global: x14=0x00000003
2132000000: global: x15=0x00000000
2132000000: global: x16=0x00000000
2132000000: global: x17=0x00000000
2132000000: global: x18=0x00000000
2132000000: global: x19=0x00000000
2132000000: global: x20=0x00000000
2132000000: global: x21=0x00000000
2132000000: global: x22=0x00000000
2132000000: global: x23=0x00000000
2132000000: global: x24=0x00000000
2132000000: global: x25=0x00000000
2132000000: global: x26=0x00000000
2132000000: global: x27=0x00000000
2132000000: global: x28=0x00000000
2132000000: global: x29=0x00000000
2132000000: global: x30=0x00000000
2132000000: global: x31=0x00000000
2132000000: global: f0=0x00000000
2132000000: global: f1=0x40933333
2132000000: global: f2=0x4019999a
2132000000: global: f3=0x40200000
2132000000: global: f4=0x00000000
2132000000: global: f5=0x00000000
2132000000: global: f6=0x00000000
2132000000: global: f7=0x00000000
2132000000: global: f8=0xc09900ae
2132000000: global: f9=0x42866328
2132000000: global: f10=0xc11740da
2132000000: global: f11=0x3f800000
2132000000: global: f12=0xc0400000
2132000000: global: f13=0x00000000
2132000000: global: f14=0x00000000
2132000000: global: f15=0x00000000
2132000000: global: f16=0x00000000
2132000000: global: f17=0x00000000
2132000000: global: f18=0x00000000
2132000000: global: f19=0x00000000
2132000000: global: f20=0x00000000
2132000000: global: f21=0x00000000
2132000000: global: f22=0x00000000
2132000000: global: f23=0x00000000
2132000000: global: f24=0x00000000
2132000000: global: f25=0x00000000
2132000000: global: f26=0x00000000
2132000000: global: f27=0x00000000
2132000000: global: f28=0x00000000
2132000000: global: f29=0x00000000
2132000000: global: f30=0x00000000
2132000000: global: f31=0x00000000
2132000000: system.cpu.memory: Log4GUI: memory: 2132000000: 0: 1017c: addi x17, x0, 93
2132000000: system.cpu.execute: Log4GUI: execute: 2132000000: 0: 10180: ecall: -1
2132000000: system.cpu.decode: Log4GUI: decode: 2132000000: 0: 10184: c_addi4spn x8, x2, 0
2132000000: system.cpu.fetch1: Log4GUI: fetch1: 2132000000: 0: 10186: <assembly>
Exiting @ tick 2132000000 because exiting with last active thread context
