Global frequency set at 1000000000000 ticks per second
gem5 Simulator System.  https://www.gem5.org
gem5 is copyrighted software; use the --copyright option for details.

gem5 version 22.1.0.0
gem5 compiled Aug 27 2025 16:10:28
gem5 started Oct 26 2025 09:34:31
gem5 executing on vboxuser-VirtualBox, pid 64483
command line: /home/vboxuser/gem5/build/RISCV/gem5.opt --debug-flags=MinorGUI gem5_config.py --cpu-type MinorCPU --caches --l1d_size 8388608 --l1i_size 8388608 --cacheline_size 512 --cpu-clock 1MHz --sys-clock 10GHz -c program_1_b

**** REAL SIMULATION ****
1000000: system.cpu.fetch1: Log4GUI: fetch1: 1000000: 0: 10094: <assembly>
2000000: system.cpu.fetch1: Log4GUI: fetch1: 2000000: 1: 10094: <assembly>
3000000: system.cpu.fetch1: Log4GUI: fetch1: 3000000: 1: 10094: <assembly>
4000000: system.cpu.fetch1: Log4GUI: fetch1: 4000000: 1: 10094: <assembly>
5000000: system.cpu.decode: Log4GUI: decode: 5000000: 0: 10094: auipc x1, 1
5000000: system.cpu.fetch1: Log4GUI: fetch1: 5000000: 0: 10098: <assembly>
6000000: system.cpu.execute: Log4GUI: execute: 6000000: 0: 10094: auipc x1, 1: 0
6000000: system.cpu.decode: Log4GUI: decode: 6000000: 0: 10098: addi x1, x1, 424
6000000: system.cpu.fetch1: Log4GUI: fetch1: 6000000: 0: 1009c: <assembly>
7000000: system.cpu.memory: Log4GUI: memory: 7000000: 0: 10094: auipc x1, 1
7000000: system.cpu.execute: Log4GUI: execute: 7000000: 0: 10098: addi x1, x1, 424: 0
7000000: system.cpu.decode: Log4GUI: decode: 7000000: 0: 1009c: flw f1, 0(x1)
7000000: system.cpu.fetch1: Log4GUI: fetch1: 7000000: 0: 100a0: <assembly>
8000000: system.cpu.writeback: Log4GUI: writeback: 8000000: 0: 10094: auipc x1, 1
8000000: system.cpu.writeback: REGISTERS
8000000: global: x0=0x00000000
8000000: global: x1=0x00011094
8000000: global: x2=0x7fffff90
8000000: global: x3=0x00000000
8000000: global: x4=0x00000000
8000000: global: x5=0x00000000
8000000: global: x6=0x00000000
8000000: global: x7=0x00000000
8000000: global: x8=0x00000000
8000000: global: x9=0x00000000
8000000: global: x10=0x00000000
8000000: global: x11=0x00000000
8000000: global: x12=0x00000000
8000000: global: x13=0x00000000
8000000: global: x14=0x00000000
8000000: global: x15=0x00000000
8000000: global: x16=0x00000000
8000000: global: x17=0x00000000
8000000: global: x18=0x00000000
8000000: global: x19=0x00000000
8000000: global: x20=0x00000000
8000000: global: x21=0x00000000
8000000: global: x22=0x00000000
8000000: global: x23=0x00000000
8000000: global: x24=0x00000000
8000000: global: x25=0x00000000
8000000: global: x26=0x00000000
8000000: global: x27=0x00000000
8000000: global: x28=0x00000000
8000000: global: x29=0x00000000
8000000: global: x30=0x00000000
8000000: global: x31=0x00000000
8000000: global: f0=0x00000000
8000000: global: f1=0x00000000
8000000: global: f2=0x00000000
8000000: global: f3=0x00000000
8000000: global: f4=0x00000000
8000000: global: f5=0x00000000
8000000: global: f6=0x00000000
8000000: global: f7=0x00000000
8000000: global: f8=0x00000000
8000000: global: f9=0x00000000
8000000: global: f10=0x00000000
8000000: global: f11=0x00000000
8000000: global: f12=0x00000000
8000000: global: f13=0x00000000
8000000: global: f14=0x00000000
8000000: global: f15=0x00000000
8000000: global: f16=0x00000000
8000000: global: f17=0x00000000
8000000: global: f18=0x00000000
8000000: global: f19=0x00000000
8000000: global: f20=0x00000000
8000000: global: f21=0x00000000
8000000: global: f22=0x00000000
8000000: global: f23=0x00000000
8000000: global: f24=0x00000000
8000000: global: f25=0x00000000
8000000: global: f26=0x00000000
8000000: global: f27=0x00000000
8000000: global: f28=0x00000000
8000000: global: f29=0x00000000
8000000: global: f30=0x00000000
8000000: global: f31=0x00000000
8000000: system.cpu.memory: Log4GUI: memory: 8000000: 0: 10098: addi x1, x1, 424
8000000: system.cpu.execute: Log4GUI: execute: 8000000: 0: 1009c: flw f1, 0(x1): 0
8000000: system.cpu.decode: Log4GUI: decode: 8000000: 0: 100a0: auipc x2, 1
8000000: system.cpu.fetch1: Log4GUI: fetch1: 8000000: 0: 100a4: <assembly>
9000000: system.cpu.writeback: Log4GUI: writeback: 9000000: 0: 10098: addi x1, x1, 424
9000000: system.cpu.writeback: REGISTERS
9000000: global: x0=0x00000000
9000000: global: x1=0x0001123c
9000000: global: x2=0x7fffff90
9000000: global: x3=0x00000000
9000000: global: x4=0x00000000
9000000: global: x5=0x00000000
9000000: global: x6=0x00000000
9000000: global: x7=0x00000000
9000000: global: x8=0x00000000
9000000: global: x9=0x00000000
9000000: global: x10=0x00000000
9000000: global: x11=0x00000000
9000000: global: x12=0x00000000
9000000: global: x13=0x00000000
9000000: global: x14=0x00000000
9000000: global: x15=0x00000000
9000000: global: x16=0x00000000
9000000: global: x17=0x00000000
9000000: global: x18=0x00000000
9000000: global: x19=0x00000000
9000000: global: x20=0x00000000
9000000: global: x21=0x00000000
9000000: global: x22=0x00000000
9000000: global: x23=0x00000000
9000000: global: x24=0x00000000
9000000: global: x25=0x00000000
9000000: global: x26=0x00000000
9000000: global: x27=0x00000000
9000000: global: x28=0x00000000
9000000: global: x29=0x00000000
9000000: global: x30=0x00000000
9000000: global: x31=0x00000000
9000000: global: f0=0x00000000
9000000: global: f1=0x00000000
9000000: global: f2=0x00000000
9000000: global: f3=0x00000000
9000000: global: f4=0x00000000
9000000: global: f5=0x00000000
9000000: global: f6=0x00000000
9000000: global: f7=0x00000000
9000000: global: f8=0x00000000
9000000: global: f9=0x00000000
9000000: global: f10=0x00000000
9000000: global: f11=0x00000000
9000000: global: f12=0x00000000
9000000: global: f13=0x00000000
9000000: global: f14=0x00000000
9000000: global: f15=0x00000000
9000000: global: f16=0x00000000
9000000: global: f17=0x00000000
9000000: global: f18=0x00000000
9000000: global: f19=0x00000000
9000000: global: f20=0x00000000
9000000: global: f21=0x00000000
9000000: global: f22=0x00000000
9000000: global: f23=0x00000000
9000000: global: f24=0x00000000
9000000: global: f25=0x00000000
9000000: global: f26=0x00000000
9000000: global: f27=0x00000000
9000000: global: f28=0x00000000
9000000: global: f29=0x00000000
9000000: global: f30=0x00000000
9000000: global: f31=0x00000000
9000000: system.cpu.memory: Log4GUI: memory: 9000000: 0: 1009c: flw f1, 0(x1)
9000000: system.cpu.execute: Log4GUI: execute: 9000000: 0: 100a0: auipc x2, 1: 0
9000000: system.cpu.decode: Log4GUI: decode: 9000000: 0: 100a4: addi x2, x2, 540
9000000: system.cpu.fetch1: Log4GUI: fetch1: 9000000: 0: 100a8: <assembly>
10000000: system.cpu.memory: Log4GUI: memory: 10000000: 1: 1009c: flw f1, 0(x1)
10000000: system.cpu.execute: Log4GUI: execute: 10000000: 1: 100a0: auipc x2, 1: 0
10000000: system.cpu.decode: Log4GUI: decode: 10000000: 1: 100a4: addi x2, x2, 540
10000000: system.cpu.fetch1: Log4GUI: fetch1: 10000000: 1: 100a8: <assembly>
11000000: system.cpu.decode: Log4GUI: decode: 11000000: 1: 100a4: addi x2, x2, 540
11000000: system.cpu.fetch1: Log4GUI: fetch1: 11000000: 1: 100a8: <assembly>
12000000: system.cpu.writeback: Log4GUI: writeback: 12000000: 0: 1009c: flw f1, 0(x1)
12000000: system.cpu.writeback: REGISTERS
12000000: global: x0=0x00000000
12000000: global: x1=0x0001123c
12000000: global: x2=0x7fffff90
12000000: global: x3=0x00000000
12000000: global: x4=0x00000000
12000000: global: x5=0x00000000
12000000: global: x6=0x00000000
12000000: global: x7=0x00000000
12000000: global: x8=0x00000000
12000000: global: x9=0x00000000
12000000: global: x10=0x00000000
12000000: global: x11=0x00000000
12000000: global: x12=0x00000000
12000000: global: x13=0x00000000
12000000: global: x14=0x00000000
12000000: global: x15=0x00000000
12000000: global: x16=0x00000000
12000000: global: x17=0x00000000
12000000: global: x18=0x00000000
12000000: global: x19=0x00000000
12000000: global: x20=0x00000000
12000000: global: x21=0x00000000
12000000: global: x22=0x00000000
12000000: global: x23=0x00000000
12000000: global: x24=0x00000000
12000000: global: x25=0x00000000
12000000: global: x26=0x00000000
12000000: global: x27=0x00000000
12000000: global: x28=0x00000000
12000000: global: x29=0x00000000
12000000: global: x30=0x00000000
12000000: global: x31=0x00000000
12000000: global: f0=0x00000000
12000000: global: f1=0x40933333
12000000: global: f2=0x00000000
12000000: global: f3=0x00000000
12000000: global: f4=0x00000000
12000000: global: f5=0x00000000
12000000: global: f6=0x00000000
12000000: global: f7=0x00000000
12000000: global: f8=0x00000000
12000000: global: f9=0x00000000
12000000: global: f10=0x00000000
12000000: global: f11=0x00000000
12000000: global: f12=0x00000000
12000000: global: f13=0x00000000
12000000: global: f14=0x00000000
12000000: global: f15=0x00000000
12000000: global: f16=0x00000000
12000000: global: f17=0x00000000
12000000: global: f18=0x00000000
12000000: global: f19=0x00000000
12000000: global: f20=0x00000000
12000000: global: f21=0x00000000
12000000: global: f22=0x00000000
12000000: global: f23=0x00000000
12000000: global: f24=0x00000000
12000000: global: f25=0x00000000
12000000: global: f26=0x00000000
12000000: global: f27=0x00000000
12000000: global: f28=0x00000000
12000000: global: f29=0x00000000
12000000: global: f30=0x00000000
12000000: global: f31=0x00000000
12000000: system.cpu.memory: Log4GUI: memory: 12000000: 0: 100a0: auipc x2, 1
12000000: system.cpu.execute: Log4GUI: execute: 12000000: 0: 100a4: addi x2, x2, 540: 0
12000000: system.cpu.decode: Log4GUI: decode: 12000000: 0: 100a8: flw f1, 0(x2)
12000000: system.cpu.fetch1: Log4GUI: fetch1: 12000000: 0: 100ac: <assembly>
13000000: system.cpu.writeback: Log4GUI: writeback: 13000000: 0: 100a0: auipc x2, 1
13000000: system.cpu.writeback: REGISTERS
13000000: global: x0=0x00000000
13000000: global: x1=0x0001123c
13000000: global: x2=0x000110a0
13000000: global: x3=0x00000000
13000000: global: x4=0x00000000
13000000: global: x5=0x00000000
13000000: global: x6=0x00000000
13000000: global: x7=0x00000000
13000000: global: x8=0x00000000
13000000: global: x9=0x00000000
13000000: global: x10=0x00000000
13000000: global: x11=0x00000000
13000000: global: x12=0x00000000
13000000: global: x13=0x00000000
13000000: global: x14=0x00000000
13000000: global: x15=0x00000000
13000000: global: x16=0x00000000
13000000: global: x17=0x00000000
13000000: global: x18=0x00000000
13000000: global: x19=0x00000000
13000000: global: x20=0x00000000
13000000: global: x21=0x00000000
13000000: global: x22=0x00000000
13000000: global: x23=0x00000000
13000000: global: x24=0x00000000
13000000: global: x25=0x00000000
13000000: global: x26=0x00000000
13000000: global: x27=0x00000000
13000000: global: x28=0x00000000
13000000: global: x29=0x00000000
13000000: global: x30=0x00000000
13000000: global: x31=0x00000000
13000000: global: f0=0x00000000
13000000: global: f1=0x40933333
13000000: global: f2=0x00000000
13000000: global: f3=0x00000000
13000000: global: f4=0x00000000
13000000: global: f5=0x00000000
13000000: global: f6=0x00000000
13000000: global: f7=0x00000000
13000000: global: f8=0x00000000
13000000: global: f9=0x00000000
13000000: global: f10=0x00000000
13000000: global: f11=0x00000000
13000000: global: f12=0x00000000
13000000: global: f13=0x00000000
13000000: global: f14=0x00000000
13000000: global: f15=0x00000000
13000000: global: f16=0x00000000
13000000: global: f17=0x00000000
13000000: global: f18=0x00000000
13000000: global: f19=0x00000000
13000000: global: f20=0x00000000
13000000: global: f21=0x00000000
13000000: global: f22=0x00000000
13000000: global: f23=0x00000000
13000000: global: f24=0x00000000
13000000: global: f25=0x00000000
13000000: global: f26=0x00000000
13000000: global: f27=0x00000000
13000000: global: f28=0x00000000
13000000: global: f29=0x00000000
13000000: global: f30=0x00000000
13000000: global: f31=0x00000000
13000000: system.cpu.memory: Log4GUI: memory: 13000000: 0: 100a4: addi x2, x2, 540
13000000: system.cpu.execute: Log4GUI: execute: 13000000: 0: 100a8: flw f1, 0(x2): 0
13000000: system.cpu.decode: Log4GUI: decode: 13000000: 0: 100ac: auipc x3, 1
13000000: system.cpu.fetch1: Log4GUI: fetch1: 13000000: 0: 100b0: <assembly>
14000000: system.cpu.writeback: Log4GUI: writeback: 14000000: 0: 100a4: addi x2, x2, 540
14000000: system.cpu.writeback: REGISTERS
14000000: global: x0=0x00000000
14000000: global: x1=0x0001123c
14000000: global: x2=0x000112bc
14000000: global: x3=0x00000000
14000000: global: x4=0x00000000
14000000: global: x5=0x00000000
14000000: global: x6=0x00000000
14000000: global: x7=0x00000000
14000000: global: x8=0x00000000
14000000: global: x9=0x00000000
14000000: global: x10=0x00000000
14000000: global: x11=0x00000000
14000000: global: x12=0x00000000
14000000: global: x13=0x00000000
14000000: global: x14=0x00000000
14000000: global: x15=0x00000000
14000000: global: x16=0x00000000
14000000: global: x17=0x00000000
14000000: global: x18=0x00000000
14000000: global: x19=0x00000000
14000000: global: x20=0x00000000
14000000: global: x21=0x00000000
14000000: global: x22=0x00000000
14000000: global: x23=0x00000000
14000000: global: x24=0x00000000
14000000: global: x25=0x00000000
14000000: global: x26=0x00000000
14000000: global: x27=0x00000000
14000000: global: x28=0x00000000
14000000: global: x29=0x00000000
14000000: global: x30=0x00000000
14000000: global: x31=0x00000000
14000000: global: f0=0x00000000
14000000: global: f1=0x40933333
14000000: global: f2=0x00000000
14000000: global: f3=0x00000000
14000000: global: f4=0x00000000
14000000: global: f5=0x00000000
14000000: global: f6=0x00000000
14000000: global: f7=0x00000000
14000000: global: f8=0x00000000
14000000: global: f9=0x00000000
14000000: global: f10=0x00000000
14000000: global: f11=0x00000000
14000000: global: f12=0x00000000
14000000: global: f13=0x00000000
14000000: global: f14=0x00000000
14000000: global: f15=0x00000000
14000000: global: f16=0x00000000
14000000: global: f17=0x00000000
14000000: global: f18=0x00000000
14000000: global: f19=0x00000000
14000000: global: f20=0x00000000
14000000: global: f21=0x00000000
14000000: global: f22=0x00000000
14000000: global: f23=0x00000000
14000000: global: f24=0x00000000
14000000: global: f25=0x00000000
14000000: global: f26=0x00000000
14000000: global: f27=0x00000000
14000000: global: f28=0x00000000
14000000: global: f29=0x00000000
14000000: global: f30=0x00000000
14000000: global: f31=0x00000000
14000000: system.cpu.memory: Log4GUI: memory: 14000000: 0: 100a8: flw f1, 0(x2)
14000000: system.cpu.execute: Log4GUI: execute: 14000000: 0: 100ac: auipc x3, 1: 0
14000000: system.cpu.decode: Log4GUI: decode: 14000000: 0: 100b0: addi x3, x3, 656
14000000: system.cpu.fetch1: Log4GUI: fetch1: 14000000: 0: 100b4: <assembly>
15000000: system.cpu.writeback: Log4GUI: writeback: 15000000: 0: 100a8: flw f1, 0(x2)
15000000: system.cpu.writeback: REGISTERS
15000000: global: x0=0x00000000
15000000: global: x1=0x0001123c
15000000: global: x2=0x000112bc
15000000: global: x3=0x00000000
15000000: global: x4=0x00000000
15000000: global: x5=0x00000000
15000000: global: x6=0x00000000
15000000: global: x7=0x00000000
15000000: global: x8=0x00000000
15000000: global: x9=0x00000000
15000000: global: x10=0x00000000
15000000: global: x11=0x00000000
15000000: global: x12=0x00000000
15000000: global: x13=0x00000000
15000000: global: x14=0x00000000
15000000: global: x15=0x00000000
15000000: global: x16=0x00000000
15000000: global: x17=0x00000000
15000000: global: x18=0x00000000
15000000: global: x19=0x00000000
15000000: global: x20=0x00000000
15000000: global: x21=0x00000000
15000000: global: x22=0x00000000
15000000: global: x23=0x00000000
15000000: global: x24=0x00000000
15000000: global: x25=0x00000000
15000000: global: x26=0x00000000
15000000: global: x27=0x00000000
15000000: global: x28=0x00000000
15000000: global: x29=0x00000000
15000000: global: x30=0x00000000
15000000: global: x31=0x00000000
15000000: global: f0=0x00000000
15000000: global: f1=0x4019999a
15000000: global: f2=0x00000000
15000000: global: f3=0x00000000
15000000: global: f4=0x00000000
15000000: global: f5=0x00000000
15000000: global: f6=0x00000000
15000000: global: f7=0x00000000
15000000: global: f8=0x00000000
15000000: global: f9=0x00000000
15000000: global: f10=0x00000000
15000000: global: f11=0x00000000
15000000: global: f12=0x00000000
15000000: global: f13=0x00000000
15000000: global: f14=0x00000000
15000000: global: f15=0x00000000
15000000: global: f16=0x00000000
15000000: global: f17=0x00000000
15000000: global: f18=0x00000000
15000000: global: f19=0x00000000
15000000: global: f20=0x00000000
15000000: global: f21=0x00000000
15000000: global: f22=0x00000000
15000000: global: f23=0x00000000
15000000: global: f24=0x00000000
15000000: global: f25=0x00000000
15000000: global: f26=0x00000000
15000000: global: f27=0x00000000
15000000: global: f28=0x00000000
15000000: global: f29=0x00000000
15000000: global: f30=0x00000000
15000000: global: f31=0x00000000
15000000: system.cpu.memory: Log4GUI: memory: 15000000: 0: 100ac: auipc x3, 1
15000000: system.cpu.execute: Log4GUI: execute: 15000000: 0: 100b0: addi x3, x3, 656: 0
15000000: system.cpu.decode: Log4GUI: decode: 15000000: 0: 100b4: flw f1, 0(x3)
15000000: system.cpu.fetch1: Log4GUI: fetch1: 15000000: 0: 100b8: <assembly>
16000000: system.cpu.writeback: Log4GUI: writeback: 16000000: 0: 100ac: auipc x3, 1
16000000: system.cpu.writeback: REGISTERS
16000000: global: x0=0x00000000
16000000: global: x1=0x0001123c
16000000: global: x2=0x000112bc
16000000: global: x3=0x000110ac
16000000: global: x4=0x00000000
16000000: global: x5=0x00000000
16000000: global: x6=0x00000000
16000000: global: x7=0x00000000
16000000: global: x8=0x00000000
16000000: global: x9=0x00000000
16000000: global: x10=0x00000000
16000000: global: x11=0x00000000
16000000: global: x12=0x00000000
16000000: global: x13=0x00000000
16000000: global: x14=0x00000000
16000000: global: x15=0x00000000
16000000: global: x16=0x00000000
16000000: global: x17=0x00000000
16000000: global: x18=0x00000000
16000000: global: x19=0x00000000
16000000: global: x20=0x00000000
16000000: global: x21=0x00000000
16000000: global: x22=0x00000000
16000000: global: x23=0x00000000
16000000: global: x24=0x00000000
16000000: global: x25=0x00000000
16000000: global: x26=0x00000000
16000000: global: x27=0x00000000
16000000: global: x28=0x00000000
16000000: global: x29=0x00000000
16000000: global: x30=0x00000000
16000000: global: x31=0x00000000
16000000: global: f0=0x00000000
16000000: global: f1=0x4019999a
16000000: global: f2=0x00000000
16000000: global: f3=0x00000000
16000000: global: f4=0x00000000
16000000: global: f5=0x00000000
16000000: global: f6=0x00000000
16000000: global: f7=0x00000000
16000000: global: f8=0x00000000
16000000: global: f9=0x00000000
16000000: global: f10=0x00000000
16000000: global: f11=0x00000000
16000000: global: f12=0x00000000
16000000: global: f13=0x00000000
16000000: global: f14=0x00000000
16000000: global: f15=0x00000000
16000000: global: f16=0x00000000
16000000: global: f17=0x00000000
16000000: global: f18=0x00000000
16000000: global: f19=0x00000000
16000000: global: f20=0x00000000
16000000: global: f21=0x00000000
16000000: global: f22=0x00000000
16000000: global: f23=0x00000000
16000000: global: f24=0x00000000
16000000: global: f25=0x00000000
16000000: global: f26=0x00000000
16000000: global: f27=0x00000000
16000000: global: f28=0x00000000
16000000: global: f29=0x00000000
16000000: global: f30=0x00000000
16000000: global: f31=0x00000000
16000000: system.cpu.memory: Log4GUI: memory: 16000000: 0: 100b0: addi x3, x3, 656
16000000: system.cpu.execute: Log4GUI: execute: 16000000: 0: 100b4: flw f1, 0(x3): 0
16000000: system.cpu.decode: Log4GUI: decode: 16000000: 0: 100b8: auipc x4, 1
16000000: system.cpu.fetch1: Log4GUI: fetch1: 16000000: 0: 100bc: <assembly>
17000000: system.cpu.writeback: Log4GUI: writeback: 17000000: 0: 100b0: addi x3, x3, 656
17000000: system.cpu.writeback: REGISTERS
17000000: global: x0=0x00000000
17000000: global: x1=0x0001123c
17000000: global: x2=0x000112bc
17000000: global: x3=0x0001133c
17000000: global: x4=0x00000000
17000000: global: x5=0x00000000
17000000: global: x6=0x00000000
17000000: global: x7=0x00000000
17000000: global: x8=0x00000000
17000000: global: x9=0x00000000
17000000: global: x10=0x00000000
17000000: global: x11=0x00000000
17000000: global: x12=0x00000000
17000000: global: x13=0x00000000
17000000: global: x14=0x00000000
17000000: global: x15=0x00000000
17000000: global: x16=0x00000000
17000000: global: x17=0x00000000
17000000: global: x18=0x00000000
17000000: global: x19=0x00000000
17000000: global: x20=0x00000000
17000000: global: x21=0x00000000
17000000: global: x22=0x00000000
17000000: global: x23=0x00000000
17000000: global: x24=0x00000000
17000000: global: x25=0x00000000
17000000: global: x26=0x00000000
17000000: global: x27=0x00000000
17000000: global: x28=0x00000000
17000000: global: x29=0x00000000
17000000: global: x30=0x00000000
17000000: global: x31=0x00000000
17000000: global: f0=0x00000000
17000000: global: f1=0x4019999a
17000000: global: f2=0x00000000
17000000: global: f3=0x00000000
17000000: global: f4=0x00000000
17000000: global: f5=0x00000000
17000000: global: f6=0x00000000
17000000: global: f7=0x00000000
17000000: global: f8=0x00000000
17000000: global: f9=0x00000000
17000000: global: f10=0x00000000
17000000: global: f11=0x00000000
17000000: global: f12=0x00000000
17000000: global: f13=0x00000000
17000000: global: f14=0x00000000
17000000: global: f15=0x00000000
17000000: global: f16=0x00000000
17000000: global: f17=0x00000000
17000000: global: f18=0x00000000
17000000: global: f19=0x00000000
17000000: global: f20=0x00000000
17000000: global: f21=0x00000000
17000000: global: f22=0x00000000
17000000: global: f23=0x00000000
17000000: global: f24=0x00000000
17000000: global: f25=0x00000000
17000000: global: f26=0x00000000
17000000: global: f27=0x00000000
17000000: global: f28=0x00000000
17000000: global: f29=0x00000000
17000000: global: f30=0x00000000
17000000: global: f31=0x00000000
17000000: system.cpu.memory: Log4GUI: memory: 17000000: 0: 100b4: flw f1, 0(x3)
17000000: system.cpu.execute: Log4GUI: execute: 17000000: 0: 100b8: auipc x4, 1: 0
17000000: system.cpu.decode: Log4GUI: decode: 17000000: 0: 100bc: addi x4, x4, 772
17000000: system.cpu.fetch1: Log4GUI: fetch1: 17000000: 0: 100c0: <assembly>
18000000: system.cpu.writeback: Log4GUI: writeback: 18000000: 0: 100b4: flw f1, 0(x3)
18000000: system.cpu.writeback: REGISTERS
18000000: global: x0=0x00000000
18000000: global: x1=0x0001123c
18000000: global: x2=0x000112bc
18000000: global: x3=0x0001133c
18000000: global: x4=0x00000000
18000000: global: x5=0x00000000
18000000: global: x6=0x00000000
18000000: global: x7=0x00000000
18000000: global: x8=0x00000000
18000000: global: x9=0x00000000
18000000: global: x10=0x00000000
18000000: global: x11=0x00000000
18000000: global: x12=0x00000000
18000000: global: x13=0x00000000
18000000: global: x14=0x00000000
18000000: global: x15=0x00000000
18000000: global: x16=0x00000000
18000000: global: x17=0x00000000
18000000: global: x18=0x00000000
18000000: global: x19=0x00000000
18000000: global: x20=0x00000000
18000000: global: x21=0x00000000
18000000: global: x22=0x00000000
18000000: global: x23=0x00000000
18000000: global: x24=0x00000000
18000000: global: x25=0x00000000
18000000: global: x26=0x00000000
18000000: global: x27=0x00000000
18000000: global: x28=0x00000000
18000000: global: x29=0x00000000
18000000: global: x30=0x00000000
18000000: global: x31=0x00000000
18000000: global: f0=0x00000000
18000000: global: f1=0x40200000
18000000: global: f2=0x00000000
18000000: global: f3=0x00000000
18000000: global: f4=0x00000000
18000000: global: f5=0x00000000
18000000: global: f6=0x00000000
18000000: global: f7=0x00000000
18000000: global: f8=0x00000000
18000000: global: f9=0x00000000
18000000: global: f10=0x00000000
18000000: global: f11=0x00000000
18000000: global: f12=0x00000000
18000000: global: f13=0x00000000
18000000: global: f14=0x00000000
18000000: global: f15=0x00000000
18000000: global: f16=0x00000000
18000000: global: f17=0x00000000
18000000: global: f18=0x00000000
18000000: global: f19=0x00000000
18000000: global: f20=0x00000000
18000000: global: f21=0x00000000
18000000: global: f22=0x00000000
18000000: global: f23=0x00000000
18000000: global: f24=0x00000000
18000000: global: f25=0x00000000
18000000: global: f26=0x00000000
18000000: global: f27=0x00000000
18000000: global: f28=0x00000000
18000000: global: f29=0x00000000
18000000: global: f30=0x00000000
18000000: global: f31=0x00000000
18000000: system.cpu.memory: Log4GUI: memory: 18000000: 0: 100b8: auipc x4, 1
18000000: system.cpu.execute: Log4GUI: execute: 18000000: 0: 100bc: addi x4, x4, 772: 0
18000000: system.cpu.decode: Log4GUI: decode: 18000000: 0: 100c0: auipc x5, 1
18000000: system.cpu.fetch1: Log4GUI: fetch1: 18000000: 0: 100c4: <assembly>
19000000: system.cpu.writeback: Log4GUI: writeback: 19000000: 0: 100b8: auipc x4, 1
19000000: system.cpu.writeback: REGISTERS
19000000: global: x0=0x00000000
19000000: global: x1=0x0001123c
19000000: global: x2=0x000112bc
19000000: global: x3=0x0001133c
19000000: global: x4=0x000110b8
19000000: global: x5=0x00000000
19000000: global: x6=0x00000000
19000000: global: x7=0x00000000
19000000: global: x8=0x00000000
19000000: global: x9=0x00000000
19000000: global: x10=0x00000000
19000000: global: x11=0x00000000
19000000: global: x12=0x00000000
19000000: global: x13=0x00000000
19000000: global: x14=0x00000000
19000000: global: x15=0x00000000
19000000: global: x16=0x00000000
19000000: global: x17=0x00000000
19000000: global: x18=0x00000000
19000000: global: x19=0x00000000
19000000: global: x20=0x00000000
19000000: global: x21=0x00000000
19000000: global: x22=0x00000000
19000000: global: x23=0x00000000
19000000: global: x24=0x00000000
19000000: global: x25=0x00000000
19000000: global: x26=0x00000000
19000000: global: x27=0x00000000
19000000: global: x28=0x00000000
19000000: global: x29=0x00000000
19000000: global: x30=0x00000000
19000000: global: x31=0x00000000
19000000: global: f0=0x00000000
19000000: global: f1=0x40200000
19000000: global: f2=0x00000000
19000000: global: f3=0x00000000
19000000: global: f4=0x00000000
19000000: global: f5=0x00000000
19000000: global: f6=0x00000000
19000000: global: f7=0x00000000
19000000: global: f8=0x00000000
19000000: global: f9=0x00000000
19000000: global: f10=0x00000000
19000000: global: f11=0x00000000
19000000: global: f12=0x00000000
19000000: global: f13=0x00000000
19000000: global: f14=0x00000000
19000000: global: f15=0x00000000
19000000: global: f16=0x00000000
19000000: global: f17=0x00000000
19000000: global: f18=0x00000000
19000000: global: f19=0x00000000
19000000: global: f20=0x00000000
19000000: global: f21=0x00000000
19000000: global: f22=0x00000000
19000000: global: f23=0x00000000
19000000: global: f24=0x00000000
19000000: global: f25=0x00000000
19000000: global: f26=0x00000000
19000000: global: f27=0x00000000
19000000: global: f28=0x00000000
19000000: global: f29=0x00000000
19000000: global: f30=0x00000000
19000000: global: f31=0x00000000
19000000: system.cpu.memory: Log4GUI: memory: 19000000: 0: 100bc: addi x4, x4, 772
19000000: system.cpu.execute: Log4GUI: execute: 19000000: 0: 100c0: auipc x5, 1: 0
19000000: system.cpu.decode: Log4GUI: decode: 19000000: 0: 100c4: addi x5, x5, 892
19000000: system.cpu.fetch1: Log4GUI: fetch1: 19000000: 0: 100c8: <assembly>
20000000: system.cpu.writeback: Log4GUI: writeback: 20000000: 0: 100bc: addi x4, x4, 772
20000000: system.cpu.writeback: REGISTERS
20000000: global: x0=0x00000000
20000000: global: x1=0x0001123c
20000000: global: x2=0x000112bc
20000000: global: x3=0x0001133c
20000000: global: x4=0x000113bc
20000000: global: x5=0x00000000
20000000: global: x6=0x00000000
20000000: global: x7=0x00000000
20000000: global: x8=0x00000000
20000000: global: x9=0x00000000
20000000: global: x10=0x00000000
20000000: global: x11=0x00000000
20000000: global: x12=0x00000000
20000000: global: x13=0x00000000
20000000: global: x14=0x00000000
20000000: global: x15=0x00000000
20000000: global: x16=0x00000000
20000000: global: x17=0x00000000
20000000: global: x18=0x00000000
20000000: global: x19=0x00000000
20000000: global: x20=0x00000000
20000000: global: x21=0x00000000
20000000: global: x22=0x00000000
20000000: global: x23=0x00000000
20000000: global: x24=0x00000000
20000000: global: x25=0x00000000
20000000: global: x26=0x00000000
20000000: global: x27=0x00000000
20000000: global: x28=0x00000000
20000000: global: x29=0x00000000
20000000: global: x30=0x00000000
20000000: global: x31=0x00000000
20000000: global: f0=0x00000000
20000000: global: f1=0x40200000
20000000: global: f2=0x00000000
20000000: global: f3=0x00000000
20000000: global: f4=0x00000000
20000000: global: f5=0x00000000
20000000: global: f6=0x00000000
20000000: global: f7=0x00000000
20000000: global: f8=0x00000000
20000000: global: f9=0x00000000
20000000: global: f10=0x00000000
20000000: global: f11=0x00000000
20000000: global: f12=0x00000000
20000000: global: f13=0x00000000
20000000: global: f14=0x00000000
20000000: global: f15=0x00000000
20000000: global: f16=0x00000000
20000000: global: f17=0x00000000
20000000: global: f18=0x00000000
20000000: global: f19=0x00000000
20000000: global: f20=0x00000000
20000000: global: f21=0x00000000
20000000: global: f22=0x00000000
20000000: global: f23=0x00000000
20000000: global: f24=0x00000000
20000000: global: f25=0x00000000
20000000: global: f26=0x00000000
20000000: global: f27=0x00000000
20000000: global: f28=0x00000000
20000000: global: f29=0x00000000
20000000: global: f30=0x00000000
20000000: global: f31=0x00000000
20000000: system.cpu.memory: Log4GUI: memory: 20000000: 0: 100c0: auipc x5, 1
20000000: system.cpu.execute: Log4GUI: execute: 20000000: 0: 100c4: addi x5, x5, 892: 0
20000000: system.cpu.decode: Log4GUI: decode: 20000000: 0: 100c8: auipc x6, 1
20000000: system.cpu.fetch1: Log4GUI: fetch1: 20000000: 0: 100cc: <assembly>
21000000: system.cpu.writeback: Log4GUI: writeback: 21000000: 0: 100c0: auipc x5, 1
21000000: system.cpu.writeback: REGISTERS
21000000: global: x0=0x00000000
21000000: global: x1=0x0001123c
21000000: global: x2=0x000112bc
21000000: global: x3=0x0001133c
21000000: global: x4=0x000113bc
21000000: global: x5=0x000110c0
21000000: global: x6=0x00000000
21000000: global: x7=0x00000000
21000000: global: x8=0x00000000
21000000: global: x9=0x00000000
21000000: global: x10=0x00000000
21000000: global: x11=0x00000000
21000000: global: x12=0x00000000
21000000: global: x13=0x00000000
21000000: global: x14=0x00000000
21000000: global: x15=0x00000000
21000000: global: x16=0x00000000
21000000: global: x17=0x00000000
21000000: global: x18=0x00000000
21000000: global: x19=0x00000000
21000000: global: x20=0x00000000
21000000: global: x21=0x00000000
21000000: global: x22=0x00000000
21000000: global: x23=0x00000000
21000000: global: x24=0x00000000
21000000: global: x25=0x00000000
21000000: global: x26=0x00000000
21000000: global: x27=0x00000000
21000000: global: x28=0x00000000
21000000: global: x29=0x00000000
21000000: global: x30=0x00000000
21000000: global: x31=0x00000000
21000000: global: f0=0x00000000
21000000: global: f1=0x40200000
21000000: global: f2=0x00000000
21000000: global: f3=0x00000000
21000000: global: f4=0x00000000
21000000: global: f5=0x00000000
21000000: global: f6=0x00000000
21000000: global: f7=0x00000000
21000000: global: f8=0x00000000
21000000: global: f9=0x00000000
21000000: global: f10=0x00000000
21000000: global: f11=0x00000000
21000000: global: f12=0x00000000
21000000: global: f13=0x00000000
21000000: global: f14=0x00000000
21000000: global: f15=0x00000000
21000000: global: f16=0x00000000
21000000: global: f17=0x00000000
21000000: global: f18=0x00000000
21000000: global: f19=0x00000000
21000000: global: f20=0x00000000
21000000: global: f21=0x00000000
21000000: global: f22=0x00000000
21000000: global: f23=0x00000000
21000000: global: f24=0x00000000
21000000: global: f25=0x00000000
21000000: global: f26=0x00000000
21000000: global: f27=0x00000000
21000000: global: f28=0x00000000
21000000: global: f29=0x00000000
21000000: global: f30=0x00000000
21000000: global: f31=0x00000000
21000000: system.cpu.memory: Log4GUI: memory: 21000000: 0: 100c4: addi x5, x5, 892
21000000: system.cpu.execute: Log4GUI: execute: 21000000: 0: 100c8: auipc x6, 1: 0
21000000: system.cpu.decode: Log4GUI: decode: 21000000: 0: 100cc: addi x6, x6, 1012
21000000: system.cpu.fetch1: Log4GUI: fetch1: 21000000: 0: 100d0: <assembly>
22000000: system.cpu.writeback: Log4GUI: writeback: 22000000: 0: 100c4: addi x5, x5, 892
22000000: system.cpu.writeback: REGISTERS
22000000: global: x0=0x00000000
22000000: global: x1=0x0001123c
22000000: global: x2=0x000112bc
22000000: global: x3=0x0001133c
22000000: global: x4=0x000113bc
22000000: global: x5=0x0001143c
22000000: global: x6=0x00000000
22000000: global: x7=0x00000000
22000000: global: x8=0x00000000
22000000: global: x9=0x00000000
22000000: global: x10=0x00000000
22000000: global: x11=0x00000000
22000000: global: x12=0x00000000
22000000: global: x13=0x00000000
22000000: global: x14=0x00000000
22000000: global: x15=0x00000000
22000000: global: x16=0x00000000
22000000: global: x17=0x00000000
22000000: global: x18=0x00000000
22000000: global: x19=0x00000000
22000000: global: x20=0x00000000
22000000: global: x21=0x00000000
22000000: global: x22=0x00000000
22000000: global: x23=0x00000000
22000000: global: x24=0x00000000
22000000: global: x25=0x00000000
22000000: global: x26=0x00000000
22000000: global: x27=0x00000000
22000000: global: x28=0x00000000
22000000: global: x29=0x00000000
22000000: global: x30=0x00000000
22000000: global: x31=0x00000000
22000000: global: f0=0x00000000
22000000: global: f1=0x40200000
22000000: global: f2=0x00000000
22000000: global: f3=0x00000000
22000000: global: f4=0x00000000
22000000: global: f5=0x00000000
22000000: global: f6=0x00000000
22000000: global: f7=0x00000000
22000000: global: f8=0x00000000
22000000: global: f9=0x00000000
22000000: global: f10=0x00000000
22000000: global: f11=0x00000000
22000000: global: f12=0x00000000
22000000: global: f13=0x00000000
22000000: global: f14=0x00000000
22000000: global: f15=0x00000000
22000000: global: f16=0x00000000
22000000: global: f17=0x00000000
22000000: global: f18=0x00000000
22000000: global: f19=0x00000000
22000000: global: f20=0x00000000
22000000: global: f21=0x00000000
22000000: global: f22=0x00000000
22000000: global: f23=0x00000000
22000000: global: f24=0x00000000
22000000: global: f25=0x00000000
22000000: global: f26=0x00000000
22000000: global: f27=0x00000000
22000000: global: f28=0x00000000
22000000: global: f29=0x00000000
22000000: global: f30=0x00000000
22000000: global: f31=0x00000000
22000000: system.cpu.memory: Log4GUI: memory: 22000000: 0: 100c8: auipc x6, 1
22000000: system.cpu.execute: Log4GUI: execute: 22000000: 0: 100cc: addi x6, x6, 1012: 0
22000000: system.cpu.decode: Log4GUI: decode: 22000000: 0: 100d0: auipc x12, 1
22000000: system.cpu.fetch1: Log4GUI: fetch1: 22000000: 0: 100d4: <assembly>
23000000: system.cpu.writeback: Log4GUI: writeback: 23000000: 0: 100c8: auipc x6, 1
23000000: system.cpu.writeback: REGISTERS
23000000: global: x0=0x00000000
23000000: global: x1=0x0001123c
23000000: global: x2=0x000112bc
23000000: global: x3=0x0001133c
23000000: global: x4=0x000113bc
23000000: global: x5=0x0001143c
23000000: global: x6=0x000110c8
23000000: global: x7=0x00000000
23000000: global: x8=0x00000000
23000000: global: x9=0x00000000
23000000: global: x10=0x00000000
23000000: global: x11=0x00000000
23000000: global: x12=0x00000000
23000000: global: x13=0x00000000
23000000: global: x14=0x00000000
23000000: global: x15=0x00000000
23000000: global: x16=0x00000000
23000000: global: x17=0x00000000
23000000: global: x18=0x00000000
23000000: global: x19=0x00000000
23000000: global: x20=0x00000000
23000000: global: x21=0x00000000
23000000: global: x22=0x00000000
23000000: global: x23=0x00000000
23000000: global: x24=0x00000000
23000000: global: x25=0x00000000
23000000: global: x26=0x00000000
23000000: global: x27=0x00000000
23000000: global: x28=0x00000000
23000000: global: x29=0x00000000
23000000: global: x30=0x00000000
23000000: global: x31=0x00000000
23000000: global: f0=0x00000000
23000000: global: f1=0x40200000
23000000: global: f2=0x00000000
23000000: global: f3=0x00000000
23000000: global: f4=0x00000000
23000000: global: f5=0x00000000
23000000: global: f6=0x00000000
23000000: global: f7=0x00000000
23000000: global: f8=0x00000000
23000000: global: f9=0x00000000
23000000: global: f10=0x00000000
23000000: global: f11=0x00000000
23000000: global: f12=0x00000000
23000000: global: f13=0x00000000
23000000: global: f14=0x00000000
23000000: global: f15=0x00000000
23000000: global: f16=0x00000000
23000000: global: f17=0x00000000
23000000: global: f18=0x00000000
23000000: global: f19=0x00000000
23000000: global: f20=0x00000000
23000000: global: f21=0x00000000
23000000: global: f22=0x00000000
23000000: global: f23=0x00000000
23000000: global: f24=0x00000000
23000000: global: f25=0x00000000
23000000: global: f26=0x00000000
23000000: global: f27=0x00000000
23000000: global: f28=0x00000000
23000000: global: f29=0x00000000
23000000: global: f30=0x00000000
23000000: global: f31=0x00000000
23000000: system.cpu.memory: Log4GUI: memory: 23000000: 0: 100cc: addi x6, x6, 1012
23000000: system.cpu.execute: Log4GUI: execute: 23000000: 0: 100d0: auipc x12, 1: 0
23000000: system.cpu.decode: Log4GUI: decode: 23000000: 0: 100d4: addi x12, x12, 1132
23000000: system.cpu.fetch1: Log4GUI: fetch1: 23000000: 0: 100d8: <assembly>
24000000: system.cpu.writeback: Log4GUI: writeback: 24000000: 0: 100cc: addi x6, x6, 1012
24000000: system.cpu.writeback: REGISTERS
24000000: global: x0=0x00000000
24000000: global: x1=0x0001123c
24000000: global: x2=0x000112bc
24000000: global: x3=0x0001133c
24000000: global: x4=0x000113bc
24000000: global: x5=0x0001143c
24000000: global: x6=0x000114bc
24000000: global: x7=0x00000000
24000000: global: x8=0x00000000
24000000: global: x9=0x00000000
24000000: global: x10=0x00000000
24000000: global: x11=0x00000000
24000000: global: x12=0x00000000
24000000: global: x13=0x00000000
24000000: global: x14=0x00000000
24000000: global: x15=0x00000000
24000000: global: x16=0x00000000
24000000: global: x17=0x00000000
24000000: global: x18=0x00000000
24000000: global: x19=0x00000000
24000000: global: x20=0x00000000
24000000: global: x21=0x00000000
24000000: global: x22=0x00000000
24000000: global: x23=0x00000000
24000000: global: x24=0x00000000
24000000: global: x25=0x00000000
24000000: global: x26=0x00000000
24000000: global: x27=0x00000000
24000000: global: x28=0x00000000
24000000: global: x29=0x00000000
24000000: global: x30=0x00000000
24000000: global: x31=0x00000000
24000000: global: f0=0x00000000
24000000: global: f1=0x40200000
24000000: global: f2=0x00000000
24000000: global: f3=0x00000000
24000000: global: f4=0x00000000
24000000: global: f5=0x00000000
24000000: global: f6=0x00000000
24000000: global: f7=0x00000000
24000000: global: f8=0x00000000
24000000: global: f9=0x00000000
24000000: global: f10=0x00000000
24000000: global: f11=0x00000000
24000000: global: f12=0x00000000
24000000: global: f13=0x00000000
24000000: global: f14=0x00000000
24000000: global: f15=0x00000000
24000000: global: f16=0x00000000
24000000: global: f17=0x00000000
24000000: global: f18=0x00000000
24000000: global: f19=0x00000000
24000000: global: f20=0x00000000
24000000: global: f21=0x00000000
24000000: global: f22=0x00000000
24000000: global: f23=0x00000000
24000000: global: f24=0x00000000
24000000: global: f25=0x00000000
24000000: global: f26=0x00000000
24000000: global: f27=0x00000000
24000000: global: f28=0x00000000
24000000: global: f29=0x00000000
24000000: global: f30=0x00000000
24000000: global: f31=0x00000000
24000000: system.cpu.memory: Log4GUI: memory: 24000000: 0: 100d0: auipc x12, 1
24000000: system.cpu.execute: Log4GUI: execute: 24000000: 0: 100d4: addi x12, x12, 1132: 0
24000000: system.cpu.decode: Log4GUI: decode: 24000000: 0: 100d8: lb x11, 0(x12)
24000000: system.cpu.fetch1: Log4GUI: fetch1: 24000000: 0: 100dc: <assembly>
25000000: system.cpu.writeback: Log4GUI: writeback: 25000000: 0: 100d0: auipc x12, 1
25000000: system.cpu.writeback: REGISTERS
25000000: global: x0=0x00000000
25000000: global: x1=0x0001123c
25000000: global: x2=0x000112bc
25000000: global: x3=0x0001133c
25000000: global: x4=0x000113bc
25000000: global: x5=0x0001143c
25000000: global: x6=0x000114bc
25000000: global: x7=0x00000000
25000000: global: x8=0x00000000
25000000: global: x9=0x00000000
25000000: global: x10=0x00000000
25000000: global: x11=0x00000000
25000000: global: x12=0x000110d0
25000000: global: x13=0x00000000
25000000: global: x14=0x00000000
25000000: global: x15=0x00000000
25000000: global: x16=0x00000000
25000000: global: x17=0x00000000
25000000: global: x18=0x00000000
25000000: global: x19=0x00000000
25000000: global: x20=0x00000000
25000000: global: x21=0x00000000
25000000: global: x22=0x00000000
25000000: global: x23=0x00000000
25000000: global: x24=0x00000000
25000000: global: x25=0x00000000
25000000: global: x26=0x00000000
25000000: global: x27=0x00000000
25000000: global: x28=0x00000000
25000000: global: x29=0x00000000
25000000: global: x30=0x00000000
25000000: global: x31=0x00000000
25000000: global: f0=0x00000000
25000000: global: f1=0x40200000
25000000: global: f2=0x00000000
25000000: global: f3=0x00000000
25000000: global: f4=0x00000000
25000000: global: f5=0x00000000
25000000: global: f6=0x00000000
25000000: global: f7=0x00000000
25000000: global: f8=0x00000000
25000000: global: f9=0x00000000
25000000: global: f10=0x00000000
25000000: global: f11=0x00000000
25000000: global: f12=0x00000000
25000000: global: f13=0x00000000
25000000: global: f14=0x00000000
25000000: global: f15=0x00000000
25000000: global: f16=0x00000000
25000000: global: f17=0x00000000
25000000: global: f18=0x00000000
25000000: global: f19=0x00000000
25000000: global: f20=0x00000000
25000000: global: f21=0x00000000
25000000: global: f22=0x00000000
25000000: global: f23=0x00000000
25000000: global: f24=0x00000000
25000000: global: f25=0x00000000
25000000: global: f26=0x00000000
25000000: global: f27=0x00000000
25000000: global: f28=0x00000000
25000000: global: f29=0x00000000
25000000: global: f30=0x00000000
25000000: global: f31=0x00000000
25000000: system.cpu.memory: Log4GUI: memory: 25000000: 0: 100d4: addi x12, x12, 1132
25000000: system.cpu.execute: Log4GUI: execute: 25000000: 0: 100d8: lb x11, 0(x12): 0
25000000: system.cpu.decode: Log4GUI: decode: 25000000: 0: 100dc: auipc x12, 1
25000000: system.cpu.fetch1: Log4GUI: fetch1: 25000000: 0: 100e0: <assembly>
26000000: system.cpu.writeback: Log4GUI: writeback: 26000000: 0: 100d4: addi x12, x12, 1132
26000000: system.cpu.writeback: REGISTERS
26000000: global: x0=0x00000000
26000000: global: x1=0x0001123c
26000000: global: x2=0x000112bc
26000000: global: x3=0x0001133c
26000000: global: x4=0x000113bc
26000000: global: x5=0x0001143c
26000000: global: x6=0x000114bc
26000000: global: x7=0x00000000
26000000: global: x8=0x00000000
26000000: global: x9=0x00000000
26000000: global: x10=0x00000000
26000000: global: x11=0x00000000
26000000: global: x12=0x0001153c
26000000: global: x13=0x00000000
26000000: global: x14=0x00000000
26000000: global: x15=0x00000000
26000000: global: x16=0x00000000
26000000: global: x17=0x00000000
26000000: global: x18=0x00000000
26000000: global: x19=0x00000000
26000000: global: x20=0x00000000
26000000: global: x21=0x00000000
26000000: global: x22=0x00000000
26000000: global: x23=0x00000000
26000000: global: x24=0x00000000
26000000: global: x25=0x00000000
26000000: global: x26=0x00000000
26000000: global: x27=0x00000000
26000000: global: x28=0x00000000
26000000: global: x29=0x00000000
26000000: global: x30=0x00000000
26000000: global: x31=0x00000000
26000000: global: f0=0x00000000
26000000: global: f1=0x40200000
26000000: global: f2=0x00000000
26000000: global: f3=0x00000000
26000000: global: f4=0x00000000
26000000: global: f5=0x00000000
26000000: global: f6=0x00000000
26000000: global: f7=0x00000000
26000000: global: f8=0x00000000
26000000: global: f9=0x00000000
26000000: global: f10=0x00000000
26000000: global: f11=0x00000000
26000000: global: f12=0x00000000
26000000: global: f13=0x00000000
26000000: global: f14=0x00000000
26000000: global: f15=0x00000000
26000000: global: f16=0x00000000
26000000: global: f17=0x00000000
26000000: global: f18=0x00000000
26000000: global: f19=0x00000000
26000000: global: f20=0x00000000
26000000: global: f21=0x00000000
26000000: global: f22=0x00000000
26000000: global: f23=0x00000000
26000000: global: f24=0x00000000
26000000: global: f25=0x00000000
26000000: global: f26=0x00000000
26000000: global: f27=0x00000000
26000000: global: f28=0x00000000
26000000: global: f29=0x00000000
26000000: global: f30=0x00000000
26000000: global: f31=0x00000000
26000000: system.cpu.memory: Log4GUI: memory: 26000000: 0: 100d8: lb x11, 0(x12)
26000000: system.cpu.execute: Log4GUI: execute: 26000000: 0: 100dc: auipc x12, 1: 0
26000000: system.cpu.decode: Log4GUI: decode: 26000000: 0: 100e0: addi x12, x12, 1121
26000000: system.cpu.fetch1: Log4GUI: fetch1: 26000000: 0: 100e4: <assembly>
27000000: system.cpu.memory: Log4GUI: memory: 27000000: 1: 100d8: lb x11, 0(x12)
27000000: system.cpu.execute: Log4GUI: execute: 27000000: 1: 100dc: auipc x12, 1: 0
27000000: system.cpu.decode: Log4GUI: decode: 27000000: 1: 100e0: addi x12, x12, 1121
27000000: system.cpu.fetch1: Log4GUI: fetch1: 27000000: 1: 100e4: <assembly>
28000000: system.cpu.decode: Log4GUI: decode: 28000000: 1: 100e0: addi x12, x12, 1121
28000000: system.cpu.fetch1: Log4GUI: fetch1: 28000000: 1: 100e4: <assembly>
29000000: system.cpu.writeback: Log4GUI: writeback: 29000000: 0: 100d8: lb x11, 0(x12)
29000000: system.cpu.writeback: REGISTERS
29000000: global: x0=0x00000000
29000000: global: x1=0x0001123c
29000000: global: x2=0x000112bc
29000000: global: x3=0x0001133c
29000000: global: x4=0x000113bc
29000000: global: x5=0x0001143c
29000000: global: x6=0x000114bc
29000000: global: x7=0x00000000
29000000: global: x8=0x00000000
29000000: global: x9=0x00000000
29000000: global: x10=0x00000000
29000000: global: x11=0x00000001
29000000: global: x12=0x0001153c
29000000: global: x13=0x00000000
29000000: global: x14=0x00000000
29000000: global: x15=0x00000000
29000000: global: x16=0x00000000
29000000: global: x17=0x00000000
29000000: global: x18=0x00000000
29000000: global: x19=0x00000000
29000000: global: x20=0x00000000
29000000: global: x21=0x00000000
29000000: global: x22=0x00000000
29000000: global: x23=0x00000000
29000000: global: x24=0x00000000
29000000: global: x25=0x00000000
29000000: global: x26=0x00000000
29000000: global: x27=0x00000000
29000000: global: x28=0x00000000
29000000: global: x29=0x00000000
29000000: global: x30=0x00000000
29000000: global: x31=0x00000000
29000000: global: f0=0x00000000
29000000: global: f1=0x40200000
29000000: global: f2=0x00000000
29000000: global: f3=0x00000000
29000000: global: f4=0x00000000
29000000: global: f5=0x00000000
29000000: global: f6=0x00000000
29000000: global: f7=0x00000000
29000000: global: f8=0x00000000
29000000: global: f9=0x00000000
29000000: global: f10=0x00000000
29000000: global: f11=0x00000000
29000000: global: f12=0x00000000
29000000: global: f13=0x00000000
29000000: global: f14=0x00000000
29000000: global: f15=0x00000000
29000000: global: f16=0x00000000
29000000: global: f17=0x00000000
29000000: global: f18=0x00000000
29000000: global: f19=0x00000000
29000000: global: f20=0x00000000
29000000: global: f21=0x00000000
29000000: global: f22=0x00000000
29000000: global: f23=0x00000000
29000000: global: f24=0x00000000
29000000: global: f25=0x00000000
29000000: global: f26=0x00000000
29000000: global: f27=0x00000000
29000000: global: f28=0x00000000
29000000: global: f29=0x00000000
29000000: global: f30=0x00000000
29000000: global: f31=0x00000000
29000000: system.cpu.memory: Log4GUI: memory: 29000000: 0: 100dc: auipc x12, 1
29000000: system.cpu.execute: Log4GUI: execute: 29000000: 0: 100e0: addi x12, x12, 1121: 0
29000000: system.cpu.decode: Log4GUI: decode: 29000000: 0: 100e4: flw f11, 0(x12)
29000000: system.cpu.fetch1: Log4GUI: fetch1: 29000000: 0: 100e8: <assembly>
30000000: system.cpu.writeback: Log4GUI: writeback: 30000000: 0: 100dc: auipc x12, 1
30000000: system.cpu.writeback: REGISTERS
30000000: global: x0=0x00000000
30000000: global: x1=0x0001123c
30000000: global: x2=0x000112bc
30000000: global: x3=0x0001133c
30000000: global: x4=0x000113bc
30000000: global: x5=0x0001143c
30000000: global: x6=0x000114bc
30000000: global: x7=0x00000000
30000000: global: x8=0x00000000
30000000: global: x9=0x00000000
30000000: global: x10=0x00000000
30000000: global: x11=0x00000001
30000000: global: x12=0x000110dc
30000000: global: x13=0x00000000
30000000: global: x14=0x00000000
30000000: global: x15=0x00000000
30000000: global: x16=0x00000000
30000000: global: x17=0x00000000
30000000: global: x18=0x00000000
30000000: global: x19=0x00000000
30000000: global: x20=0x00000000
30000000: global: x21=0x00000000
30000000: global: x22=0x00000000
30000000: global: x23=0x00000000
30000000: global: x24=0x00000000
30000000: global: x25=0x00000000
30000000: global: x26=0x00000000
30000000: global: x27=0x00000000
30000000: global: x28=0x00000000
30000000: global: x29=0x00000000
30000000: global: x30=0x00000000
30000000: global: x31=0x00000000
30000000: global: f0=0x00000000
30000000: global: f1=0x40200000
30000000: global: f2=0x00000000
30000000: global: f3=0x00000000
30000000: global: f4=0x00000000
30000000: global: f5=0x00000000
30000000: global: f6=0x00000000
30000000: global: f7=0x00000000
30000000: global: f8=0x00000000
30000000: global: f9=0x00000000
30000000: global: f10=0x00000000
30000000: global: f11=0x00000000
30000000: global: f12=0x00000000
30000000: global: f13=0x00000000
30000000: global: f14=0x00000000
30000000: global: f15=0x00000000
30000000: global: f16=0x00000000
30000000: global: f17=0x00000000
30000000: global: f18=0x00000000
30000000: global: f19=0x00000000
30000000: global: f20=0x00000000
30000000: global: f21=0x00000000
30000000: global: f22=0x00000000
30000000: global: f23=0x00000000
30000000: global: f24=0x00000000
30000000: global: f25=0x00000000
30000000: global: f26=0x00000000
30000000: global: f27=0x00000000
30000000: global: f28=0x00000000
30000000: global: f29=0x00000000
30000000: global: f30=0x00000000
30000000: global: f31=0x00000000
30000000: system.cpu.memory: Log4GUI: memory: 30000000: 0: 100e0: addi x12, x12, 1121
30000000: system.cpu.execute: Log4GUI: execute: 30000000: 0: 100e4: flw f11, 0(x12): 0
30000000: system.cpu.decode: Log4GUI: decode: 30000000: 0: 100e8: addi x7, x0, 31
30000000: system.cpu.fetch1: Log4GUI: fetch1: 30000000: 0: 100ec: <assembly>
31000000: system.cpu.writeback: Log4GUI: writeback: 31000000: 0: 100e0: addi x12, x12, 1121
31000000: system.cpu.writeback: REGISTERS
31000000: global: x0=0x00000000
31000000: global: x1=0x0001123c
31000000: global: x2=0x000112bc
31000000: global: x3=0x0001133c
31000000: global: x4=0x000113bc
31000000: global: x5=0x0001143c
31000000: global: x6=0x000114bc
31000000: global: x7=0x00000000
31000000: global: x8=0x00000000
31000000: global: x9=0x00000000
31000000: global: x10=0x00000000
31000000: global: x11=0x00000001
31000000: global: x12=0x0001153d
31000000: global: x13=0x00000000
31000000: global: x14=0x00000000
31000000: global: x15=0x00000000
31000000: global: x16=0x00000000
31000000: global: x17=0x00000000
31000000: global: x18=0x00000000
31000000: global: x19=0x00000000
31000000: global: x20=0x00000000
31000000: global: x21=0x00000000
31000000: global: x22=0x00000000
31000000: global: x23=0x00000000
31000000: global: x24=0x00000000
31000000: global: x25=0x00000000
31000000: global: x26=0x00000000
31000000: global: x27=0x00000000
31000000: global: x28=0x00000000
31000000: global: x29=0x00000000
31000000: global: x30=0x00000000
31000000: global: x31=0x00000000
31000000: global: f0=0x00000000
31000000: global: f1=0x40200000
31000000: global: f2=0x00000000
31000000: global: f3=0x00000000
31000000: global: f4=0x00000000
31000000: global: f5=0x00000000
31000000: global: f6=0x00000000
31000000: global: f7=0x00000000
31000000: global: f8=0x00000000
31000000: global: f9=0x00000000
31000000: global: f10=0x00000000
31000000: global: f11=0x00000000
31000000: global: f12=0x00000000
31000000: global: f13=0x00000000
31000000: global: f14=0x00000000
31000000: global: f15=0x00000000
31000000: global: f16=0x00000000
31000000: global: f17=0x00000000
31000000: global: f18=0x00000000
31000000: global: f19=0x00000000
31000000: global: f20=0x00000000
31000000: global: f21=0x00000000
31000000: global: f22=0x00000000
31000000: global: f23=0x00000000
31000000: global: f24=0x00000000
31000000: global: f25=0x00000000
31000000: global: f26=0x00000000
31000000: global: f27=0x00000000
31000000: global: f28=0x00000000
31000000: global: f29=0x00000000
31000000: global: f30=0x00000000
31000000: global: f31=0x00000000
31000000: system.cpu.memory: Log4GUI: memory: 31000000: 0: 100e4: flw f11, 0(x12)
31000000: system.cpu.execute: Log4GUI: execute: 31000000: 0: 100e8: addi x7, x0, 31: 0
31000000: system.cpu.decode: Log4GUI: decode: 31000000: 0: 100ec: slli x9, x7, 2
31000000: system.cpu.fetch1: Log4GUI: fetch1: 31000000: 0: 100f0: <assembly>
32000000: system.cpu.writeback: Log4GUI: writeback: 32000000: 0: 100e4: flw f11, 0(x12)
32000000: system.cpu.writeback: REGISTERS
32000000: global: x0=0x00000000
32000000: global: x1=0x0001123c
32000000: global: x2=0x000112bc
32000000: global: x3=0x0001133c
32000000: global: x4=0x000113bc
32000000: global: x5=0x0001143c
32000000: global: x6=0x000114bc
32000000: global: x7=0x00000000
32000000: global: x8=0x00000000
32000000: global: x9=0x00000000
32000000: global: x10=0x00000000
32000000: global: x11=0x00000001
32000000: global: x12=0x0001153d
32000000: global: x13=0x00000000
32000000: global: x14=0x00000000
32000000: global: x15=0x00000000
32000000: global: x16=0x00000000
32000000: global: x17=0x00000000
32000000: global: x18=0x00000000
32000000: global: x19=0x00000000
32000000: global: x20=0x00000000
32000000: global: x21=0x00000000
32000000: global: x22=0x00000000
32000000: global: x23=0x00000000
32000000: global: x24=0x00000000
32000000: global: x25=0x00000000
32000000: global: x26=0x00000000
32000000: global: x27=0x00000000
32000000: global: x28=0x00000000
32000000: global: x29=0x00000000
32000000: global: x30=0x00000000
32000000: global: x31=0x00000000
32000000: global: f0=0x00000000
32000000: global: f1=0x40200000
32000000: global: f2=0x00000000
32000000: global: f3=0x00000000
32000000: global: f4=0x00000000
32000000: global: f5=0x00000000
32000000: global: f6=0x00000000
32000000: global: f7=0x00000000
32000000: global: f8=0x00000000
32000000: global: f9=0x00000000
32000000: global: f10=0x00000000
32000000: global: f11=0x3f800000
32000000: global: f12=0x00000000
32000000: global: f13=0x00000000
32000000: global: f14=0x00000000
32000000: global: f15=0x00000000
32000000: global: f16=0x00000000
32000000: global: f17=0x00000000
32000000: global: f18=0x00000000
32000000: global: f19=0x00000000
32000000: global: f20=0x00000000
32000000: global: f21=0x00000000
32000000: global: f22=0x00000000
32000000: global: f23=0x00000000
32000000: global: f24=0x00000000
32000000: global: f25=0x00000000
32000000: global: f26=0x00000000
32000000: global: f27=0x00000000
32000000: global: f28=0x00000000
32000000: global: f29=0x00000000
32000000: global: f30=0x00000000
32000000: global: f31=0x00000000
32000000: system.cpu.memory: Log4GUI: memory: 32000000: 0: 100e8: addi x7, x0, 31
32000000: system.cpu.execute: Log4GUI: execute: 32000000: 0: 100ec: slli x9, x7, 2: 0
32000000: system.cpu.decode: Log4GUI: decode: 32000000: 0: 100f0: blt x7, x0, 320
32000000: system.cpu.fetch1: Log4GUI: fetch1: 32000000: 0: 100f4: <assembly>
33000000: system.cpu.writeback: Log4GUI: writeback: 33000000: 0: 100e8: addi x7, x0, 31
33000000: system.cpu.writeback: REGISTERS
33000000: global: x0=0x00000000
33000000: global: x1=0x0001123c
33000000: global: x2=0x000112bc
33000000: global: x3=0x0001133c
33000000: global: x4=0x000113bc
33000000: global: x5=0x0001143c
33000000: global: x6=0x000114bc
33000000: global: x7=0x0000001f
33000000: global: x8=0x00000000
33000000: global: x9=0x00000000
33000000: global: x10=0x00000000
33000000: global: x11=0x00000001
33000000: global: x12=0x0001153d
33000000: global: x13=0x00000000
33000000: global: x14=0x00000000
33000000: global: x15=0x00000000
33000000: global: x16=0x00000000
33000000: global: x17=0x00000000
33000000: global: x18=0x00000000
33000000: global: x19=0x00000000
33000000: global: x20=0x00000000
33000000: global: x21=0x00000000
33000000: global: x22=0x00000000
33000000: global: x23=0x00000000
33000000: global: x24=0x00000000
33000000: global: x25=0x00000000
33000000: global: x26=0x00000000
33000000: global: x27=0x00000000
33000000: global: x28=0x00000000
33000000: global: x29=0x00000000
33000000: global: x30=0x00000000
33000000: global: x31=0x00000000
33000000: global: f0=0x00000000
33000000: global: f1=0x40200000
33000000: global: f2=0x00000000
33000000: global: f3=0x00000000
33000000: global: f4=0x00000000
33000000: global: f5=0x00000000
33000000: global: f6=0x00000000
33000000: global: f7=0x00000000
33000000: global: f8=0x00000000
33000000: global: f9=0x00000000
33000000: global: f10=0x00000000
33000000: global: f11=0x3f800000
33000000: global: f12=0x00000000
33000000: global: f13=0x00000000
33000000: global: f14=0x00000000
33000000: global: f15=0x00000000
33000000: global: f16=0x00000000
33000000: global: f17=0x00000000
33000000: global: f18=0x00000000
33000000: global: f19=0x00000000
33000000: global: f20=0x00000000
33000000: global: f21=0x00000000
33000000: global: f22=0x00000000
33000000: global: f23=0x00000000
33000000: global: f24=0x00000000
33000000: global: f25=0x00000000
33000000: global: f26=0x00000000
33000000: global: f27=0x00000000
33000000: global: f28=0x00000000
33000000: global: f29=0x00000000
33000000: global: f30=0x00000000
33000000: global: f31=0x00000000
33000000: system.cpu.memory: Log4GUI: memory: 33000000: 0: 100ec: slli x9, x7, 2
33000000: system.cpu.execute: Log4GUI: execute: 33000000: 0: 100f0: blt x7, x0, 320: 0
33000000: system.cpu.decode: Log4GUI: decode: 33000000: 0: 100f4: addi x14, x0, 3
33000000: system.cpu.fetch1: Log4GUI: fetch1: 33000000: 0: 100f8: <assembly>
34000000: system.cpu.writeback: Log4GUI: writeback: 34000000: 0: 100ec: slli x9, x7, 2
34000000: system.cpu.writeback: REGISTERS
34000000: global: x0=0x00000000
34000000: global: x1=0x0001123c
34000000: global: x2=0x000112bc
34000000: global: x3=0x0001133c
34000000: global: x4=0x000113bc
34000000: global: x5=0x0001143c
34000000: global: x6=0x000114bc
34000000: global: x7=0x0000001f
34000000: global: x8=0x00000000
34000000: global: x9=0x0000007c
34000000: global: x10=0x00000000
34000000: global: x11=0x00000001
34000000: global: x12=0x0001153d
34000000: global: x13=0x00000000
34000000: global: x14=0x00000000
34000000: global: x15=0x00000000
34000000: global: x16=0x00000000
34000000: global: x17=0x00000000
34000000: global: x18=0x00000000
34000000: global: x19=0x00000000
34000000: global: x20=0x00000000
34000000: global: x21=0x00000000
34000000: global: x22=0x00000000
34000000: global: x23=0x00000000
34000000: global: x24=0x00000000
34000000: global: x25=0x00000000
34000000: global: x26=0x00000000
34000000: global: x27=0x00000000
34000000: global: x28=0x00000000
34000000: global: x29=0x00000000
34000000: global: x30=0x00000000
34000000: global: x31=0x00000000
34000000: global: f0=0x00000000
34000000: global: f1=0x40200000
34000000: global: f2=0x00000000
34000000: global: f3=0x00000000
34000000: global: f4=0x00000000
34000000: global: f5=0x00000000
34000000: global: f6=0x00000000
34000000: global: f7=0x00000000
34000000: global: f8=0x00000000
34000000: global: f9=0x00000000
34000000: global: f10=0x00000000
34000000: global: f11=0x3f800000
34000000: global: f12=0x00000000
34000000: global: f13=0x00000000
34000000: global: f14=0x00000000
34000000: global: f15=0x00000000
34000000: global: f16=0x00000000
34000000: global: f17=0x00000000
34000000: global: f18=0x00000000
34000000: global: f19=0x00000000
34000000: global: f20=0x00000000
34000000: global: f21=0x00000000
34000000: global: f22=0x00000000
34000000: global: f23=0x00000000
34000000: global: f24=0x00000000
34000000: global: f25=0x00000000
34000000: global: f26=0x00000000
34000000: global: f27=0x00000000
34000000: global: f28=0x00000000
34000000: global: f29=0x00000000
34000000: global: f30=0x00000000
34000000: global: f31=0x00000000
34000000: system.cpu.memory: Log4GUI: memory: 34000000: 0: 100f0: blt x7, x0, 320
34000000: system.cpu.execute: Log4GUI: execute: 34000000: 0: 100f4: addi x14, x0, 3: 0
34000000: system.cpu.decode: Log4GUI: decode: 34000000: 0: 100f8: rem x13, x7, x14
34000000: system.cpu.fetch1: Log4GUI: fetch1: 34000000: 0: 100fc: <assembly>
35000000: system.cpu.writeback: Log4GUI: writeback: 35000000: 0: 100f0: blt x7, x0, 320
35000000: system.cpu.writeback: REGISTERS
35000000: global: x0=0x00000000
35000000: global: x1=0x0001123c
35000000: global: x2=0x000112bc
35000000: global: x3=0x0001133c
35000000: global: x4=0x000113bc
35000000: global: x5=0x0001143c
35000000: global: x6=0x000114bc
35000000: global: x7=0x0000001f
35000000: global: x8=0x00000000
35000000: global: x9=0x0000007c
35000000: global: x10=0x00000000
35000000: global: x11=0x00000001
35000000: global: x12=0x0001153d
35000000: global: x13=0x00000000
35000000: global: x14=0x00000000
35000000: global: x15=0x00000000
35000000: global: x16=0x00000000
35000000: global: x17=0x00000000
35000000: global: x18=0x00000000
35000000: global: x19=0x00000000
35000000: global: x20=0x00000000
35000000: global: x21=0x00000000
35000000: global: x22=0x00000000
35000000: global: x23=0x00000000
35000000: global: x24=0x00000000
35000000: global: x25=0x00000000
35000000: global: x26=0x00000000
35000000: global: x27=0x00000000
35000000: global: x28=0x00000000
35000000: global: x29=0x00000000
35000000: global: x30=0x00000000
35000000: global: x31=0x00000000
35000000: global: f0=0x00000000
35000000: global: f1=0x40200000
35000000: global: f2=0x00000000
35000000: global: f3=0x00000000
35000000: global: f4=0x00000000
35000000: global: f5=0x00000000
35000000: global: f6=0x00000000
35000000: global: f7=0x00000000
35000000: global: f8=0x00000000
35000000: global: f9=0x00000000
35000000: global: f10=0x00000000
35000000: global: f11=0x3f800000
35000000: global: f12=0x00000000
35000000: global: f13=0x00000000
35000000: global: f14=0x00000000
35000000: global: f15=0x00000000
35000000: global: f16=0x00000000
35000000: global: f17=0x00000000
35000000: global: f18=0x00000000
35000000: global: f19=0x00000000
35000000: global: f20=0x00000000
35000000: global: f21=0x00000000
35000000: global: f22=0x00000000
35000000: global: f23=0x00000000
35000000: global: f24=0x00000000
35000000: global: f25=0x00000000
35000000: global: f26=0x00000000
35000000: global: f27=0x00000000
35000000: global: f28=0x00000000
35000000: global: f29=0x00000000
35000000: global: f30=0x00000000
35000000: global: f31=0x00000000
35000000: system.cpu.memory: Log4GUI: memory: 35000000: 0: 100f4: addi x14, x0, 3
35000000: system.cpu.execute: Log4GUI: execute: 35000000: 0: 100f8: rem x13, x7, x14: 2
35000000: system.cpu.decode: Log4GUI: decode: 35000000: 0: 100fc: mul x12, x11, x7
35000000: system.cpu.fetch1: Log4GUI: fetch1: 35000000: 0: 10100: <assembly>
36000000: system.cpu.writeback: Log4GUI: writeback: 36000000: 0: 100f4: addi x14, x0, 3
36000000: system.cpu.writeback: REGISTERS
36000000: global: x0=0x00000000
36000000: global: x1=0x0001123c
36000000: global: x2=0x000112bc
36000000: global: x3=0x0001133c
36000000: global: x4=0x000113bc
36000000: global: x5=0x0001143c
36000000: global: x6=0x000114bc
36000000: global: x7=0x0000001f
36000000: global: x8=0x00000000
36000000: global: x9=0x0000007c
36000000: global: x10=0x00000000
36000000: global: x11=0x00000001
36000000: global: x12=0x0001153d
36000000: global: x13=0x00000000
36000000: global: x14=0x00000003
36000000: global: x15=0x00000000
36000000: global: x16=0x00000000
36000000: global: x17=0x00000000
36000000: global: x18=0x00000000
36000000: global: x19=0x00000000
36000000: global: x20=0x00000000
36000000: global: x21=0x00000000
36000000: global: x22=0x00000000
36000000: global: x23=0x00000000
36000000: global: x24=0x00000000
36000000: global: x25=0x00000000
36000000: global: x26=0x00000000
36000000: global: x27=0x00000000
36000000: global: x28=0x00000000
36000000: global: x29=0x00000000
36000000: global: x30=0x00000000
36000000: global: x31=0x00000000
36000000: global: f0=0x00000000
36000000: global: f1=0x40200000
36000000: global: f2=0x00000000
36000000: global: f3=0x00000000
36000000: global: f4=0x00000000
36000000: global: f5=0x00000000
36000000: global: f6=0x00000000
36000000: global: f7=0x00000000
36000000: global: f8=0x00000000
36000000: global: f9=0x00000000
36000000: global: f10=0x00000000
36000000: global: f11=0x3f800000
36000000: global: f12=0x00000000
36000000: global: f13=0x00000000
36000000: global: f14=0x00000000
36000000: global: f15=0x00000000
36000000: global: f16=0x00000000
36000000: global: f17=0x00000000
36000000: global: f18=0x00000000
36000000: global: f19=0x00000000
36000000: global: f20=0x00000000
36000000: global: f21=0x00000000
36000000: global: f22=0x00000000
36000000: global: f23=0x00000000
36000000: global: f24=0x00000000
36000000: global: f25=0x00000000
36000000: global: f26=0x00000000
36000000: global: f27=0x00000000
36000000: global: f28=0x00000000
36000000: global: f29=0x00000000
36000000: global: f30=0x00000000
36000000: global: f31=0x00000000
36000000: system.cpu.memory: Log4GUI: memory: 36000000: 0: 100f8: rem x13, x7, x14
36000000: system.cpu.execute: Log4GUI: execute: 36000000: 0: 100fc: mul x12, x11, x7: 1
36000000: system.cpu.decode: Log4GUI: decode: 36000000: 0: 10100: fcvt_s_w f12, x12
36000000: system.cpu.fetch1: Log4GUI: fetch1: 36000000: 0: 10104: <assembly>
37000000: system.cpu.writeback: Log4GUI: writeback: 37000000: 0: 100f8: rem x13, x7, x14
37000000: system.cpu.writeback: REGISTERS
37000000: global: x0=0x00000000
37000000: global: x1=0x0001123c
37000000: global: x2=0x000112bc
37000000: global: x3=0x0001133c
37000000: global: x4=0x000113bc
37000000: global: x5=0x0001143c
37000000: global: x6=0x000114bc
37000000: global: x7=0x0000001f
37000000: global: x8=0x00000000
37000000: global: x9=0x0000007c
37000000: global: x10=0x00000000
37000000: global: x11=0x00000001
37000000: global: x12=0x0001153d
37000000: global: x13=0x00000001
37000000: global: x14=0x00000003
37000000: global: x15=0x00000000
37000000: global: x16=0x00000000
37000000: global: x17=0x00000000
37000000: global: x18=0x00000000
37000000: global: x19=0x00000000
37000000: global: x20=0x00000000
37000000: global: x21=0x00000000
37000000: global: x22=0x00000000
37000000: global: x23=0x00000000
37000000: global: x24=0x00000000
37000000: global: x25=0x00000000
37000000: global: x26=0x00000000
37000000: global: x27=0x00000000
37000000: global: x28=0x00000000
37000000: global: x29=0x00000000
37000000: global: x30=0x00000000
37000000: global: x31=0x00000000
37000000: global: f0=0x00000000
37000000: global: f1=0x40200000
37000000: global: f2=0x00000000
37000000: global: f3=0x00000000
37000000: global: f4=0x00000000
37000000: global: f5=0x00000000
37000000: global: f6=0x00000000
37000000: global: f7=0x00000000
37000000: global: f8=0x00000000
37000000: global: f9=0x00000000
37000000: global: f10=0x00000000
37000000: global: f11=0x3f800000
37000000: global: f12=0x00000000
37000000: global: f13=0x00000000
37000000: global: f14=0x00000000
37000000: global: f15=0x00000000
37000000: global: f16=0x00000000
37000000: global: f17=0x00000000
37000000: global: f18=0x00000000
37000000: global: f19=0x00000000
37000000: global: f20=0x00000000
37000000: global: f21=0x00000000
37000000: global: f22=0x00000000
37000000: global: f23=0x00000000
37000000: global: f24=0x00000000
37000000: global: f25=0x00000000
37000000: global: f26=0x00000000
37000000: global: f27=0x00000000
37000000: global: f28=0x00000000
37000000: global: f29=0x00000000
37000000: global: f30=0x00000000
37000000: global: f31=0x00000000
37000000: system.cpu.memory: Log4GUI: memory: 37000000: 0: 100fc: mul x12, x11, x7
37000000: system.cpu.execute: Log4GUI: execute: 37000000: 0: 10100: fcvt_s_w f12, x12: 3
37000000: system.cpu.decode: Log4GUI: decode: 37000000: 0: 10104: add x10, x9, x1
37000000: system.cpu.fetch1: Log4GUI: fetch1: 37000000: 0: 10108: <assembly>
38000000: system.cpu.writeback: Log4GUI: writeback: 38000000: 0: 100fc: mul x12, x11, x7
38000000: system.cpu.writeback: REGISTERS
38000000: global: x0=0x00000000
38000000: global: x1=0x0001123c
38000000: global: x2=0x000112bc
38000000: global: x3=0x0001133c
38000000: global: x4=0x000113bc
38000000: global: x5=0x0001143c
38000000: global: x6=0x000114bc
38000000: global: x7=0x0000001f
38000000: global: x8=0x00000000
38000000: global: x9=0x0000007c
38000000: global: x10=0x00000000
38000000: global: x11=0x00000001
38000000: global: x12=0x0000001f
38000000: global: x13=0x00000001
38000000: global: x14=0x00000003
38000000: global: x15=0x00000000
38000000: global: x16=0x00000000
38000000: global: x17=0x00000000
38000000: global: x18=0x00000000
38000000: global: x19=0x00000000
38000000: global: x20=0x00000000
38000000: global: x21=0x00000000
38000000: global: x22=0x00000000
38000000: global: x23=0x00000000
38000000: global: x24=0x00000000
38000000: global: x25=0x00000000
38000000: global: x26=0x00000000
38000000: global: x27=0x00000000
38000000: global: x28=0x00000000
38000000: global: x29=0x00000000
38000000: global: x30=0x00000000
38000000: global: x31=0x00000000
38000000: global: f0=0x00000000
38000000: global: f1=0x40200000
38000000: global: f2=0x00000000
38000000: global: f3=0x00000000
38000000: global: f4=0x00000000
38000000: global: f5=0x00000000
38000000: global: f6=0x00000000
38000000: global: f7=0x00000000
38000000: global: f8=0x00000000
38000000: global: f9=0x00000000
38000000: global: f10=0x00000000
38000000: global: f11=0x3f800000
38000000: global: f12=0x00000000
38000000: global: f13=0x00000000
38000000: global: f14=0x00000000
38000000: global: f15=0x00000000
38000000: global: f16=0x00000000
38000000: global: f17=0x00000000
38000000: global: f18=0x00000000
38000000: global: f19=0x00000000
38000000: global: f20=0x00000000
38000000: global: f21=0x00000000
38000000: global: f22=0x00000000
38000000: global: f23=0x00000000
38000000: global: f24=0x00000000
38000000: global: f25=0x00000000
38000000: global: f26=0x00000000
38000000: global: f27=0x00000000
38000000: global: f28=0x00000000
38000000: global: f29=0x00000000
38000000: global: f30=0x00000000
38000000: global: f31=0x00000000
38000000: system.cpu.execute: Log4GUI: execute: 38000000: 0: 10104: add x10, x9, x1: 0
38000000: system.cpu.execute: Log4GUI: execute: 38000000: 0: 10100: fcvt_s_w f12, x12: 3
38000000: system.cpu.decode: Log4GUI: decode: 38000000: 0: 10108: flw f1, 0(x10)
38000000: system.cpu.fetch1: Log4GUI: fetch1: 38000000: 0: 1010c: <assembly>
39000000: system.cpu.memory: Log4GUI: memory: 39000000: 0: 10104: add x10, x9, x1
39000000: system.cpu.execute: Log4GUI: execute: 39000000: 0: 10108: flw f1, 0(x10): 0
39000000: system.cpu.execute: Log4GUI: execute: 39000000: 0: 10100: fcvt_s_w f12, x12: 3
39000000: system.cpu.decode: Log4GUI: decode: 39000000: 0: 1010c: fmul_s f10, f1, f12
39000000: system.cpu.fetch1: Log4GUI: fetch1: 39000000: 0: 10110: <assembly>
40000000: system.cpu.writeback: Log4GUI: writeback: 40000000: 0: 10104: add x10, x9, x1
40000000: system.cpu.writeback: REGISTERS
40000000: global: x0=0x00000000
40000000: global: x1=0x0001123c
40000000: global: x2=0x000112bc
40000000: global: x3=0x0001133c
40000000: global: x4=0x000113bc
40000000: global: x5=0x0001143c
40000000: global: x6=0x000114bc
40000000: global: x7=0x0000001f
40000000: global: x8=0x00000000
40000000: global: x9=0x0000007c
40000000: global: x10=0x000112b8
40000000: global: x11=0x00000001
40000000: global: x12=0x0000001f
40000000: global: x13=0x00000001
40000000: global: x14=0x00000003
40000000: global: x15=0x00000000
40000000: global: x16=0x00000000
40000000: global: x17=0x00000000
40000000: global: x18=0x00000000
40000000: global: x19=0x00000000
40000000: global: x20=0x00000000
40000000: global: x21=0x00000000
40000000: global: x22=0x00000000
40000000: global: x23=0x00000000
40000000: global: x24=0x00000000
40000000: global: x25=0x00000000
40000000: global: x26=0x00000000
40000000: global: x27=0x00000000
40000000: global: x28=0x00000000
40000000: global: x29=0x00000000
40000000: global: x30=0x00000000
40000000: global: x31=0x00000000
40000000: global: f0=0x00000000
40000000: global: f1=0x40200000
40000000: global: f2=0x00000000
40000000: global: f3=0x00000000
40000000: global: f4=0x00000000
40000000: global: f5=0x00000000
40000000: global: f6=0x00000000
40000000: global: f7=0x00000000
40000000: global: f8=0x00000000
40000000: global: f9=0x00000000
40000000: global: f10=0x00000000
40000000: global: f11=0x3f800000
40000000: global: f12=0x00000000
40000000: global: f13=0x00000000
40000000: global: f14=0x00000000
40000000: global: f15=0x00000000
40000000: global: f16=0x00000000
40000000: global: f17=0x00000000
40000000: global: f18=0x00000000
40000000: global: f19=0x00000000
40000000: global: f20=0x00000000
40000000: global: f21=0x00000000
40000000: global: f22=0x00000000
40000000: global: f23=0x00000000
40000000: global: f24=0x00000000
40000000: global: f25=0x00000000
40000000: global: f26=0x00000000
40000000: global: f27=0x00000000
40000000: global: f28=0x00000000
40000000: global: f29=0x00000000
40000000: global: f30=0x00000000
40000000: global: f31=0x00000000
40000000: system.cpu.memory: Log4GUI: memory: 40000000: 0: 10108: flw f1, 0(x10)
40000000: system.cpu.execute: Log4GUI: execute: 40000000: 0: 10100: fcvt_s_w f12, x12: 3
40000000: system.cpu.decode: Log4GUI: decode: 40000000: 1: 1010c: fmul_s f10, f1, f12
40000000: system.cpu.fetch1: Log4GUI: fetch1: 40000000: 1: 10110: <assembly>
41000000: system.cpu.writeback: Log4GUI: writeback: 41000000: 0: 10108: flw f1, 0(x10)
41000000: system.cpu.writeback: REGISTERS
41000000: global: x0=0x00000000
41000000: global: x1=0x0001123c
41000000: global: x2=0x000112bc
41000000: global: x3=0x0001133c
41000000: global: x4=0x000113bc
41000000: global: x5=0x0001143c
41000000: global: x6=0x000114bc
41000000: global: x7=0x0000001f
41000000: global: x8=0x00000000
41000000: global: x9=0x0000007c
41000000: global: x10=0x000112b8
41000000: global: x11=0x00000001
41000000: global: x12=0x0000001f
41000000: global: x13=0x00000001
41000000: global: x14=0x00000003
41000000: global: x15=0x00000000
41000000: global: x16=0x00000000
41000000: global: x17=0x00000000
41000000: global: x18=0x00000000
41000000: global: x19=0x00000000
41000000: global: x20=0x00000000
41000000: global: x21=0x00000000
41000000: global: x22=0x00000000
41000000: global: x23=0x00000000
41000000: global: x24=0x00000000
41000000: global: x25=0x00000000
41000000: global: x26=0x00000000
41000000: global: x27=0x00000000
41000000: global: x28=0x00000000
41000000: global: x29=0x00000000
41000000: global: x30=0x00000000
41000000: global: x31=0x00000000
41000000: global: f0=0x00000000
41000000: global: f1=0x40cccccd
41000000: global: f2=0x00000000
41000000: global: f3=0x00000000
41000000: global: f4=0x00000000
41000000: global: f5=0x00000000
41000000: global: f6=0x00000000
41000000: global: f7=0x00000000
41000000: global: f8=0x00000000
41000000: global: f9=0x00000000
41000000: global: f10=0x00000000
41000000: global: f11=0x3f800000
41000000: global: f12=0x00000000
41000000: global: f13=0x00000000
41000000: global: f14=0x00000000
41000000: global: f15=0x00000000
41000000: global: f16=0x00000000
41000000: global: f17=0x00000000
41000000: global: f18=0x00000000
41000000: global: f19=0x00000000
41000000: global: f20=0x00000000
41000000: global: f21=0x00000000
41000000: global: f22=0x00000000
41000000: global: f23=0x00000000
41000000: global: f24=0x00000000
41000000: global: f25=0x00000000
41000000: global: f26=0x00000000
41000000: global: f27=0x00000000
41000000: global: f28=0x00000000
41000000: global: f29=0x00000000
41000000: global: f30=0x00000000
41000000: global: f31=0x00000000
41000000: system.cpu.memory: Log4GUI: memory: 41000000: 0: 10100: fcvt_s_w f12, x12
41000000: system.cpu.execute: Log4GUI: execute: 41000000: 0: 1010c: fmul_s f10, f1, f12: 4
41000000: system.cpu.decode: Log4GUI: decode: 41000000: 0: 10110: add x10, x9, x2
41000000: system.cpu.fetch1: Log4GUI: fetch1: 41000000: 0: 10114: <assembly>
42000000: system.cpu.writeback: Log4GUI: writeback: 42000000: 0: 10100: fcvt_s_w f12, x12
42000000: system.cpu.writeback: REGISTERS
42000000: global: x0=0x00000000
42000000: global: x1=0x0001123c
42000000: global: x2=0x000112bc
42000000: global: x3=0x0001133c
42000000: global: x4=0x000113bc
42000000: global: x5=0x0001143c
42000000: global: x6=0x000114bc
42000000: global: x7=0x0000001f
42000000: global: x8=0x00000000
42000000: global: x9=0x0000007c
42000000: global: x10=0x000112b8
42000000: global: x11=0x00000001
42000000: global: x12=0x0000001f
42000000: global: x13=0x00000001
42000000: global: x14=0x00000003
42000000: global: x15=0x00000000
42000000: global: x16=0x00000000
42000000: global: x17=0x00000000
42000000: global: x18=0x00000000
42000000: global: x19=0x00000000
42000000: global: x20=0x00000000
42000000: global: x21=0x00000000
42000000: global: x22=0x00000000
42000000: global: x23=0x00000000
42000000: global: x24=0x00000000
42000000: global: x25=0x00000000
42000000: global: x26=0x00000000
42000000: global: x27=0x00000000
42000000: global: x28=0x00000000
42000000: global: x29=0x00000000
42000000: global: x30=0x00000000
42000000: global: x31=0x00000000
42000000: global: f0=0x00000000
42000000: global: f1=0x40cccccd
42000000: global: f2=0x00000000
42000000: global: f3=0x00000000
42000000: global: f4=0x00000000
42000000: global: f5=0x00000000
42000000: global: f6=0x00000000
42000000: global: f7=0x00000000
42000000: global: f8=0x00000000
42000000: global: f9=0x00000000
42000000: global: f10=0x00000000
42000000: global: f11=0x3f800000
42000000: global: f12=0x41f80000
42000000: global: f13=0x00000000
42000000: global: f14=0x00000000
42000000: global: f15=0x00000000
42000000: global: f16=0x00000000
42000000: global: f17=0x00000000
42000000: global: f18=0x00000000
42000000: global: f19=0x00000000
42000000: global: f20=0x00000000
42000000: global: f21=0x00000000
42000000: global: f22=0x00000000
42000000: global: f23=0x00000000
42000000: global: f24=0x00000000
42000000: global: f25=0x00000000
42000000: global: f26=0x00000000
42000000: global: f27=0x00000000
42000000: global: f28=0x00000000
42000000: global: f29=0x00000000
42000000: global: f30=0x00000000
42000000: global: f31=0x00000000
42000000: system.cpu.execute: Log4GUI: execute: 42000000: 0: 10110: add x10, x9, x2: 0
42000000: system.cpu.execute: Log4GUI: execute: 42000000: 0: 1010c: fmul_s f10, f1, f12: 4
42000000: system.cpu.decode: Log4GUI: decode: 42000000: 0: 10114: flw f2, 0(x10)
42000000: system.cpu.fetch1: Log4GUI: fetch1: 42000000: 0: 10118: <assembly>
43000000: system.cpu.memory: Log4GUI: memory: 43000000: 0: 10110: add x10, x9, x2
43000000: system.cpu.execute: Log4GUI: execute: 43000000: 0: 10114: flw f2, 0(x10): 0
43000000: system.cpu.execute: Log4GUI: execute: 43000000: 0: 1010c: fmul_s f10, f1, f12: 4
43000000: system.cpu.decode: Log4GUI: decode: 43000000: 0: 10118: fcvt_w_s x11, f10
43000000: system.cpu.fetch1: Log4GUI: fetch1: 43000000: 0: 1011c: <assembly>
44000000: system.cpu.writeback: Log4GUI: writeback: 44000000: 0: 10110: add x10, x9, x2
44000000: system.cpu.writeback: REGISTERS
44000000: global: x0=0x00000000
44000000: global: x1=0x0001123c
44000000: global: x2=0x000112bc
44000000: global: x3=0x0001133c
44000000: global: x4=0x000113bc
[...]
1788000000: system.cpu.execute: Log4GUI: execute: 1788000000: 0: 10218: fmul_s f9, f9, f8: 4
1788000000: system.cpu.decode: Log4GUI: decode: 1788000000: 0: 10228: slli x9, x7, 2
1788000000: system.cpu.fetch1: Log4GUI: fetch1: 1788000000: 0: 1022c: <assembly>
1789000000: system.cpu.writeback: Log4GUI: writeback: 1789000000: 0: 10220: addi x7, x7, -1
1789000000: system.cpu.writeback: REGISTERS
1789000000: global: x0=0x00000000
1789000000: global: x1=0x0001123c
1789000000: global: x2=0x000112bc
1789000000: global: x3=0x0001133c
1789000000: global: x4=0x000113bc
1789000000: global: x5=0x0001143c
1789000000: global: x6=0x000114bc
1789000000: global: x7=0xfffffffe
1789000000: global: x8=0x000114b8
1789000000: global: x9=0xfffffffc
1789000000: global: x10=0x00011338
1789000000: global: x11=0x00000000
1789000000: global: x12=0x00000002
1789000000: global: x13=0xffffffff
1789000000: global: x14=0x00000003
1789000000: global: x15=0x00000000
1789000000: global: x16=0x00000000
1789000000: global: x17=0x00000000
1789000000: global: x18=0x00000000
1789000000: global: x19=0x00000000
1789000000: global: x20=0x00000000
1789000000: global: x21=0x00000000
1789000000: global: x22=0x00000000
1789000000: global: x23=0x00000000
1789000000: global: x24=0x00000000
1789000000: global: x25=0x00000000
1789000000: global: x26=0x00000000
1789000000: global: x27=0x00000000
1789000000: global: x28=0x00000000
1789000000: global: x29=0x00000000
1789000000: global: x30=0x00000000
1789000000: global: x31=0x00000000
1789000000: global: f0=0x00000000
1789000000: global: f1=0x00000000
1789000000: global: f2=0x40cccccd
1789000000: global: f3=0x40900000
1789000000: global: f4=0x00000000
1789000000: global: f5=0x00000000
1789000000: global: f6=0x00000000
1789000000: global: f7=0x00000000
1789000000: global: f8=0xc01b05b0
1789000000: global: f9=0xc0cccccd
1789000000: global: f10=0xc0cccccd
1789000000: global: f11=0x3f800000
1789000000: global: f12=0x40000000
1789000000: global: f13=0x00000000
1789000000: global: f14=0x00000000
1789000000: global: f15=0x00000000
1789000000: global: f16=0x00000000
1789000000: global: f17=0x00000000
1789000000: global: f18=0x00000000
1789000000: global: f19=0x00000000
1789000000: global: f20=0x00000000
1789000000: global: f21=0x00000000
1789000000: global: f22=0x00000000
1789000000: global: f23=0x00000000
1789000000: global: f24=0x00000000
1789000000: global: f25=0x00000000
1789000000: global: f26=0x00000000
1789000000: global: f27=0x00000000
1789000000: global: f28=0x00000000
1789000000: global: f29=0x00000000
1789000000: global: f30=0x00000000
1789000000: global: f31=0x00000000
1789000000: system.cpu.execute: Log4GUI: execute: 1789000000: 1: 10224: fsw f9, 0(x8): 0
1789000000: system.cpu.execute: Log4GUI: execute: 1789000000: 0: 10218: fmul_s f9, f9, f8: 4
1789000000: system.cpu.decode: Log4GUI: decode: 1789000000: 1: 10228: slli x9, x7, 2
1789000000: system.cpu.fetch1: Log4GUI: fetch1: 1789000000: 1: 1022c: <assembly>
1790000000: system.cpu.execute: Log4GUI: execute: 1790000000: 0: 10218: fmul_s f9, f9, f8: 4
1790000000: system.cpu.execute: Log4GUI: execute: 1790000000: 1: 10224: fsw f9, 0(x8): 0
1790000000: system.cpu.decode: Log4GUI: decode: 1790000000: 1: 10228: slli x9, x7, 2
1790000000: system.cpu.fetch1: Log4GUI: fetch1: 1790000000: 1: 1022c: <assembly>
1791000000: system.cpu.memory: Log4GUI: memory: 1791000000: 0: 10218: fmul_s f9, f9, f8
1791000000: system.cpu.decode: Log4GUI: decode: 1791000000: 1: 10228: slli x9, x7, 2
1791000000: system.cpu.fetch1: Log4GUI: fetch1: 1791000000: 1: 1022c: <assembly>
1792000000: system.cpu.writeback: Log4GUI: writeback: 1792000000: 0: 10218: fmul_s f9, f9, f8
1792000000: system.cpu.writeback: REGISTERS
1792000000: global: x0=0x00000000
1792000000: global: x1=0x0001123c
1792000000: global: x2=0x000112bc
1792000000: global: x3=0x0001133c
1792000000: global: x4=0x000113bc
1792000000: global: x5=0x0001143c
1792000000: global: x6=0x000114bc
1792000000: global: x7=0xfffffffe
1792000000: global: x8=0x000114b8
1792000000: global: x9=0xfffffffc
1792000000: global: x10=0x00011338
1792000000: global: x11=0x00000000
1792000000: global: x12=0x00000002
1792000000: global: x13=0xffffffff
1792000000: global: x14=0x00000003
1792000000: global: x15=0x00000000
1792000000: global: x16=0x00000000
1792000000: global: x17=0x00000000
1792000000: global: x18=0x00000000
1792000000: global: x19=0x00000000
1792000000: global: x20=0x00000000
1792000000: global: x21=0x00000000
1792000000: global: x22=0x00000000
1792000000: global: x23=0x00000000
1792000000: global: x24=0x00000000
1792000000: global: x25=0x00000000
1792000000: global: x26=0x00000000
1792000000: global: x27=0x00000000
1792000000: global: x28=0x00000000
1792000000: global: x29=0x00000000
1792000000: global: x30=0x00000000
1792000000: global: x31=0x00000000
1792000000: global: f0=0x00000000
1792000000: global: f1=0x00000000
1792000000: global: f2=0x40cccccd
1792000000: global: f3=0x40900000
1792000000: global: f4=0x00000000
1792000000: global: f5=0x00000000
1792000000: global: f6=0x00000000
1792000000: global: f7=0x00000000
1792000000: global: f8=0xc01b05b0
1792000000: global: f9=0x4178091a
1792000000: global: f10=0xc0cccccd
1792000000: global: f11=0x3f800000
1792000000: global: f12=0x40000000
1792000000: global: f13=0x00000000
1792000000: global: f14=0x00000000
1792000000: global: f15=0x00000000
1792000000: global: f16=0x00000000
1792000000: global: f17=0x00000000
1792000000: global: f18=0x00000000
1792000000: global: f19=0x00000000
1792000000: global: f20=0x00000000
1792000000: global: f21=0x00000000
1792000000: global: f22=0x00000000
1792000000: global: f23=0x00000000
1792000000: global: f24=0x00000000
1792000000: global: f25=0x00000000
1792000000: global: f26=0x00000000
1792000000: global: f27=0x00000000
1792000000: global: f28=0x00000000
1792000000: global: f29=0x00000000
1792000000: global: f30=0x00000000
1792000000: global: f31=0x00000000
1792000000: system.cpu.memory: Log4GUI: memory: 1792000000: 0: 10224: fsw f9, 0(x8)
1792000000: system.cpu.execute: Log4GUI: execute: 1792000000: 0: 10228: slli x9, x7, 2: 0
1792000000: system.cpu.decode: Log4GUI: decode: 1792000000: 0: 1022c: jal x0, -316
1792000000: system.cpu.fetch1: Log4GUI: fetch1: 1792000000: 0: 10230: <assembly>
1793000000: system.cpu.writeback: Log4GUI: writeback: 1793000000: 0: 10224: fsw f9, 0(x8)
1793000000: system.cpu.writeback: REGISTERS
1793000000: global: x0=0x00000000
1793000000: global: x1=0x0001123c
1793000000: global: x2=0x000112bc
1793000000: global: x3=0x0001133c
1793000000: global: x4=0x000113bc
1793000000: global: x5=0x0001143c
1793000000: global: x6=0x000114bc
1793000000: global: x7=0xfffffffe
1793000000: global: x8=0x000114b8
1793000000: global: x9=0xfffffffc
1793000000: global: x10=0x00011338
1793000000: global: x11=0x00000000
1793000000: global: x12=0x00000002
1793000000: global: x13=0xffffffff
1793000000: global: x14=0x00000003
1793000000: global: x15=0x00000000
1793000000: global: x16=0x00000000
1793000000: global: x17=0x00000000
1793000000: global: x18=0x00000000
1793000000: global: x19=0x00000000
1793000000: global: x20=0x00000000
1793000000: global: x21=0x00000000
1793000000: global: x22=0x00000000
1793000000: global: x23=0x00000000
1793000000: global: x24=0x00000000
1793000000: global: x25=0x00000000
1793000000: global: x26=0x00000000
1793000000: global: x27=0x00000000
1793000000: global: x28=0x00000000
1793000000: global: x29=0x00000000
1793000000: global: x30=0x00000000
1793000000: global: x31=0x00000000
1793000000: global: f0=0x00000000
1793000000: global: f1=0x00000000
1793000000: global: f2=0x40cccccd
1793000000: global: f3=0x40900000
1793000000: global: f4=0x00000000
1793000000: global: f5=0x00000000
1793000000: global: f6=0x00000000
1793000000: global: f7=0x00000000
1793000000: global: f8=0xc01b05b0
1793000000: global: f9=0x4178091a
1793000000: global: f10=0xc0cccccd
1793000000: global: f11=0x3f800000
1793000000: global: f12=0x40000000
1793000000: global: f13=0x00000000
1793000000: global: f14=0x00000000
1793000000: global: f15=0x00000000
1793000000: global: f16=0x00000000
1793000000: global: f17=0x00000000
1793000000: global: f18=0x00000000
1793000000: global: f19=0x00000000
1793000000: global: f20=0x00000000
1793000000: global: f21=0x00000000
1793000000: global: f22=0x00000000
1793000000: global: f23=0x00000000
1793000000: global: f24=0x00000000
1793000000: global: f25=0x00000000
1793000000: global: f26=0x00000000
1793000000: global: f27=0x00000000
1793000000: global: f28=0x00000000
1793000000: global: f29=0x00000000
1793000000: global: f30=0x00000000
1793000000: global: f31=0x00000000
1793000000: system.cpu.memory: Log4GUI: memory: 1793000000: 0: 10228: slli x9, x7, 2
1793000000: system.cpu.execute: Log4GUI: execute: 1793000000: 0: 1022c: jal x0, -316: 0
1793000000: system.cpu.fetch1: Log4GUI: fetch1: 1793000000: 0: 100f0: <assembly>
1794000000: system.cpu.writeback: Log4GUI: writeback: 1794000000: 0: 10228: slli x9, x7, 2
1794000000: system.cpu.writeback: REGISTERS
1794000000: global: x0=0x00000000
1794000000: global: x1=0x0001123c
1794000000: global: x2=0x000112bc
1794000000: global: x3=0x0001133c
1794000000: global: x4=0x000113bc
1794000000: global: x5=0x0001143c
1794000000: global: x6=0x000114bc
1794000000: global: x7=0xfffffffe
1794000000: global: x8=0x000114b8
1794000000: global: x9=0xfffffff8
1794000000: global: x10=0x00011338
1794000000: global: x11=0x00000000
1794000000: global: x12=0x00000002
1794000000: global: x13=0xffffffff
1794000000: global: x14=0x00000003
1794000000: global: x15=0x00000000
1794000000: global: x16=0x00000000
1794000000: global: x17=0x00000000
1794000000: global: x18=0x00000000
1794000000: global: x19=0x00000000
1794000000: global: x20=0x00000000
1794000000: global: x21=0x00000000
1794000000: global: x22=0x00000000
1794000000: global: x23=0x00000000
1794000000: global: x24=0x00000000
1794000000: global: x25=0x00000000
1794000000: global: x26=0x00000000
1794000000: global: x27=0x00000000
1794000000: global: x28=0x00000000
1794000000: global: x29=0x00000000
1794000000: global: x30=0x00000000
1794000000: global: x31=0x00000000
1794000000: global: f0=0x00000000
1794000000: global: f1=0x00000000
1794000000: global: f2=0x40cccccd
1794000000: global: f3=0x40900000
1794000000: global: f4=0x00000000
1794000000: global: f5=0x00000000
1794000000: global: f6=0x00000000
1794000000: global: f7=0x00000000
1794000000: global: f8=0xc01b05b0
1794000000: global: f9=0x4178091a
1794000000: global: f10=0xc0cccccd
1794000000: global: f11=0x3f800000
1794000000: global: f12=0x40000000
1794000000: global: f13=0x00000000
1794000000: global: f14=0x00000000
1794000000: global: f15=0x00000000
1794000000: global: f16=0x00000000
1794000000: global: f17=0x00000000
1794000000: global: f18=0x00000000
1794000000: global: f19=0x00000000
1794000000: global: f20=0x00000000
1794000000: global: f21=0x00000000
1794000000: global: f22=0x00000000
1794000000: global: f23=0x00000000
1794000000: global: f24=0x00000000
1794000000: global: f25=0x00000000
1794000000: global: f26=0x00000000
1794000000: global: f27=0x00000000
1794000000: global: f28=0x00000000
1794000000: global: f29=0x00000000
1794000000: global: f30=0x00000000
1794000000: global: f31=0x00000000
1794000000: system.cpu.memory: Log4GUI: memory: 1794000000: 0: 1022c: jal x0, -316
1794000000: system.cpu.decode: Log4GUI: decode: 1794000000: 0: 100f0: blt x7, x0, 320
1794000000: system.cpu.fetch1: Log4GUI: fetch1: 1794000000: 0: 100f4: <assembly>
1795000000: system.cpu.writeback: Log4GUI: writeback: 1795000000: 0: 1022c: jal x0, -316
1795000000: system.cpu.writeback: REGISTERS
1795000000: global: x0=0x00000000
1795000000: global: x1=0x0001123c
1795000000: global: x2=0x000112bc
1795000000: global: x3=0x0001133c
1795000000: global: x4=0x000113bc
1795000000: global: x5=0x0001143c
1795000000: global: x6=0x000114bc
1795000000: global: x7=0xfffffffe
1795000000: global: x8=0x000114b8
1795000000: global: x9=0xfffffff8
1795000000: global: x10=0x00011338
1795000000: global: x11=0x00000000
1795000000: global: x12=0x00000002
1795000000: global: x13=0xffffffff
1795000000: global: x14=0x00000003
1795000000: global: x15=0x00000000
1795000000: global: x16=0x00000000
1795000000: global: x17=0x00000000
1795000000: global: x18=0x00000000
1795000000: global: x19=0x00000000
1795000000: global: x20=0x00000000
1795000000: global: x21=0x00000000
1795000000: global: x22=0x00000000
1795000000: global: x23=0x00000000
1795000000: global: x24=0x00000000
1795000000: global: x25=0x00000000
1795000000: global: x26=0x00000000
1795000000: global: x27=0x00000000
1795000000: global: x28=0x00000000
1795000000: global: x29=0x00000000
1795000000: global: x30=0x00000000
1795000000: global: x31=0x00000000
1795000000: global: f0=0x00000000
1795000000: global: f1=0x00000000
1795000000: global: f2=0x40cccccd
1795000000: global: f3=0x40900000
1795000000: global: f4=0x00000000
1795000000: global: f5=0x00000000
1795000000: global: f6=0x00000000
1795000000: global: f7=0x00000000
1795000000: global: f8=0xc01b05b0
1795000000: global: f9=0x4178091a
1795000000: global: f10=0xc0cccccd
1795000000: global: f11=0x3f800000
1795000000: global: f12=0x40000000
1795000000: global: f13=0x00000000
1795000000: global: f14=0x00000000
1795000000: global: f15=0x00000000
1795000000: global: f16=0x00000000
1795000000: global: f17=0x00000000
1795000000: global: f18=0x00000000
1795000000: global: f19=0x00000000
1795000000: global: f20=0x00000000
1795000000: global: f21=0x00000000
1795000000: global: f22=0x00000000
1795000000: global: f23=0x00000000
1795000000: global: f24=0x00000000
1795000000: global: f25=0x00000000
1795000000: global: f26=0x00000000
1795000000: global: f27=0x00000000
1795000000: global: f28=0x00000000
1795000000: global: f29=0x00000000
1795000000: global: f30=0x00000000
1795000000: global: f31=0x00000000
1795000000: system.cpu.execute: Log4GUI: execute: 1795000000: 0: 100f0: blt x7, x0, 320: 0
1795000000: system.cpu.fetch1: Log4GUI: fetch1: 1795000000: 0: 10230: <assembly>
1796000000: system.cpu.memory: Log4GUI: memory: 1796000000: 0: 100f0: blt x7, x0, 320
1796000000: system.cpu.decode: Log4GUI: decode: 1796000000: 0: 10230: addi x10, x0, 0
1796000000: system.cpu.fetch1: Log4GUI: fetch1: 1796000000: 0: 10234: <assembly>
1797000000: system.cpu.writeback: Log4GUI: writeback: 1797000000: 0: 100f0: blt x7, x0, 320
1797000000: system.cpu.writeback: REGISTERS
1797000000: global: x0=0x00000000
1797000000: global: x1=0x0001123c
1797000000: global: x2=0x000112bc
1797000000: global: x3=0x0001133c
1797000000: global: x4=0x000113bc
1797000000: global: x5=0x0001143c
1797000000: global: x6=0x000114bc
1797000000: global: x7=0xfffffffe
1797000000: global: x8=0x000114b8
1797000000: global: x9=0xfffffff8
1797000000: global: x10=0x00011338
1797000000: global: x11=0x00000000
1797000000: global: x12=0x00000002
1797000000: global: x13=0xffffffff
1797000000: global: x14=0x00000003
1797000000: global: x15=0x00000000
1797000000: global: x16=0x00000000
1797000000: global: x17=0x00000000
1797000000: global: x18=0x00000000
1797000000: global: x19=0x00000000
1797000000: global: x20=0x00000000
1797000000: global: x21=0x00000000
1797000000: global: x22=0x00000000
1797000000: global: x23=0x00000000
1797000000: global: x24=0x00000000
1797000000: global: x25=0x00000000
1797000000: global: x26=0x00000000
1797000000: global: x27=0x00000000
1797000000: global: x28=0x00000000
1797000000: global: x29=0x00000000
1797000000: global: x30=0x00000000
1797000000: global: x31=0x00000000
1797000000: global: f0=0x00000000
1797000000: global: f1=0x00000000
1797000000: global: f2=0x40cccccd
1797000000: global: f3=0x40900000
1797000000: global: f4=0x00000000
1797000000: global: f5=0x00000000
1797000000: global: f6=0x00000000
1797000000: global: f7=0x00000000
1797000000: global: f8=0xc01b05b0
1797000000: global: f9=0x4178091a
1797000000: global: f10=0xc0cccccd
1797000000: global: f11=0x3f800000
1797000000: global: f12=0x40000000
1797000000: global: f13=0x00000000
1797000000: global: f14=0x00000000
1797000000: global: f15=0x00000000
1797000000: global: f16=0x00000000
1797000000: global: f17=0x00000000
1797000000: global: f18=0x00000000
1797000000: global: f19=0x00000000
1797000000: global: f20=0x00000000
1797000000: global: f21=0x00000000
1797000000: global: f22=0x00000000
1797000000: global: f23=0x00000000
1797000000: global: f24=0x00000000
1797000000: global: f25=0x00000000
1797000000: global: f26=0x00000000
1797000000: global: f27=0x00000000
1797000000: global: f28=0x00000000
1797000000: global: f29=0x00000000
1797000000: global: f30=0x00000000
1797000000: global: f31=0x00000000
1797000000: system.cpu.execute: Log4GUI: execute: 1797000000: 0: 10230: addi x10, x0, 0: 0
1797000000: system.cpu.decode: Log4GUI: decode: 1797000000: 0: 10234: addi x17, x0, 93
1797000000: system.cpu.fetch1: Log4GUI: fetch1: 1797000000: 0: 10238: <assembly>
1798000000: system.cpu.memory: Log4GUI: memory: 1798000000: 0: 10230: addi x10, x0, 0
1798000000: system.cpu.execute: Log4GUI: execute: 1798000000: 0: 10234: addi x17, x0, 93: 0
1798000000: system.cpu.decode: Log4GUI: decode: 1798000000: 0: 10238: ecall
1798000000: system.cpu.fetch1: Log4GUI: fetch1: 1798000000: 0: 1023c: <assembly>
1799000000: system.cpu.writeback: Log4GUI: writeback: 1799000000: 0: 10230: addi x10, x0, 0
1799000000: system.cpu.writeback: REGISTERS
1799000000: global: x0=0x00000000
1799000000: global: x1=0x0001123c
1799000000: global: x2=0x000112bc
1799000000: global: x3=0x0001133c
1799000000: global: x4=0x000113bc
1799000000: global: x5=0x0001143c
1799000000: global: x6=0x000114bc
1799000000: global: x7=0xfffffffe
1799000000: global: x8=0x000114b8
1799000000: global: x9=0xfffffff8
1799000000: global: x10=0x00000000
1799000000: global: x11=0x00000000
1799000000: global: x12=0x00000002
1799000000: global: x13=0xffffffff
1799000000: global: x14=0x00000003
1799000000: global: x15=0x00000000
1799000000: global: x16=0x00000000
1799000000: global: x17=0x00000000
1799000000: global: x18=0x00000000
1799000000: global: x19=0x00000000
1799000000: global: x20=0x00000000
1799000000: global: x21=0x00000000
1799000000: global: x22=0x00000000
1799000000: global: x23=0x00000000
1799000000: global: x24=0x00000000
1799000000: global: x25=0x00000000
1799000000: global: x26=0x00000000
1799000000: global: x27=0x00000000
1799000000: global: x28=0x00000000
1799000000: global: x29=0x00000000
1799000000: global: x30=0x00000000
1799000000: global: x31=0x00000000
1799000000: global: f0=0x00000000
1799000000: global: f1=0x00000000
1799000000: global: f2=0x40cccccd
1799000000: global: f3=0x40900000
1799000000: global: f4=0x00000000
1799000000: global: f5=0x00000000
1799000000: global: f6=0x00000000
1799000000: global: f7=0x00000000
1799000000: global: f8=0xc01b05b0
1799000000: global: f9=0x4178091a
1799000000: global: f10=0xc0cccccd
1799000000: global: f11=0x3f800000
1799000000: global: f12=0x40000000
1799000000: global: f13=0x00000000
1799000000: global: f14=0x00000000
1799000000: global: f15=0x00000000
1799000000: global: f16=0x00000000
1799000000: global: f17=0x00000000
1799000000: global: f18=0x00000000
1799000000: global: f19=0x00000000
1799000000: global: f20=0x00000000
1799000000: global: f21=0x00000000
1799000000: global: f22=0x00000000
1799000000: global: f23=0x00000000
1799000000: global: f24=0x00000000
1799000000: global: f25=0x00000000
1799000000: global: f26=0x00000000
1799000000: global: f27=0x00000000
1799000000: global: f28=0x00000000
1799000000: global: f29=0x00000000
1799000000: global: f30=0x00000000
1799000000: global: f31=0x00000000
1799000000: system.cpu.memory: Log4GUI: memory: 1799000000: 0: 10234: addi x17, x0, 93
1799000000: system.cpu.execute: Log4GUI: execute: 1799000000: 0: 10238: ecall: -1
1799000000: system.cpu.decode: Log4GUI: decode: 1799000000: 0: 1023c: c_addi4spn x8, x2, 0
1799000000: system.cpu.fetch1: Log4GUI: fetch1: 1799000000: 0: 1023e: <assembly>
Exiting @ tick 1799000000 because exiting with last active thread context
