Global frequency set at 1000000000000 ticks per second
gem5 Simulator System.  https://www.gem5.org
gem5 is copyrighted software; use the --copyright option for details.

gem5 version 22.1.0.0
gem5 compiled Aug 27 2025 16:10:28
gem5 started Oct 11 2025 10:51:25
gem5 executing on vboxuser-VirtualBox, pid 3601
command line: /home/vboxuser/gem5/build/RISCV/gem5.opt --debug-flags=MinorGUI gem5_config.py --cpu-type MinorCPU --caches --l1d_size 8388608 --l1i_size 8388608 --cacheline_size 512 --cpu-clock 1MHz --sys-clock 10GHz -c program_3

**** REAL SIMULATION ****
1000000: system.cpu.fetch1: Log4GUI: fetch1: 1000000: 0: 10094: <assembly>
2000000: system.cpu.fetch1: Log4GUI: fetch1: 2000000: 1: 10094: <assembly>
3000000: system.cpu.fetch1: Log4GUI: fetch1: 3000000: 1: 10094: <assembly>
4000000: system.cpu.fetch1: Log4GUI: fetch1: 4000000: 1: 10094: <assembly>
5000000: system.cpu.decode: Log4GUI: decode: 5000000: 0: 10094: auipc x1, 1
5000000: system.cpu.fetch1: Log4GUI: fetch1: 5000000: 0: 10098: <assembly>
6000000: system.cpu.execute: Log4GUI: execute: 6000000: 0: 10094: auipc x1, 1: 0
6000000: system.cpu.decode: Log4GUI: decode: 6000000: 0: 10098: addi x1, x1, 300
6000000: system.cpu.fetch1: Log4GUI: fetch1: 6000000: 0: 1009c: <assembly>
7000000: system.cpu.memory: Log4GUI: memory: 7000000: 0: 10094: auipc x1, 1
7000000: system.cpu.execute: Log4GUI: execute: 7000000: 0: 10098: addi x1, x1, 300: 0
7000000: system.cpu.decode: Log4GUI: decode: 7000000: 0: 1009c: lb x3, 0(x1)
7000000: system.cpu.fetch1: Log4GUI: fetch1: 7000000: 0: 100a0: <assembly>
8000000: system.cpu.writeback: Log4GUI: writeback: 8000000: 0: 10094: auipc x1, 1
8000000: system.cpu.writeback: REGISTERS
8000000: global: x0=0x00000000
8000000: global: x1=0x00011094
8000000: global: x2=0x7fffff90
8000000: global: x3=0x00000000
8000000: global: x4=0x00000000
8000000: global: x5=0x00000000
8000000: global: x6=0x00000000
8000000: global: x7=0x00000000
8000000: global: x8=0x00000000
8000000: global: x9=0x00000000
8000000: global: x10=0x00000000
8000000: global: x11=0x00000000
8000000: global: x12=0x00000000
8000000: global: x13=0x00000000
8000000: global: x14=0x00000000
8000000: global: x15=0x00000000
8000000: global: x16=0x00000000
8000000: global: x17=0x00000000
8000000: global: x18=0x00000000
8000000: global: x19=0x00000000
8000000: global: x20=0x00000000
8000000: global: x21=0x00000000
8000000: global: x22=0x00000000
8000000: global: x23=0x00000000
8000000: global: x24=0x00000000
8000000: global: x25=0x00000000
8000000: global: x26=0x00000000
8000000: global: x27=0x00000000
8000000: global: x28=0x00000000
8000000: global: x29=0x00000000
8000000: global: x30=0x00000000
8000000: global: x31=0x00000000
8000000: global: f0=0x00000000
8000000: global: f1=0x00000000
8000000: global: f2=0x00000000
8000000: global: f3=0x00000000
8000000: global: f4=0x00000000
8000000: global: f5=0x00000000
8000000: global: f6=0x00000000
8000000: global: f7=0x00000000
8000000: global: f8=0x00000000
8000000: global: f9=0x00000000
8000000: global: f10=0x00000000
8000000: global: f11=0x00000000
8000000: global: f12=0x00000000
8000000: global: f13=0x00000000
8000000: global: f14=0x00000000
8000000: global: f15=0x00000000
8000000: global: f16=0x00000000
8000000: global: f17=0x00000000
8000000: global: f18=0x00000000
8000000: global: f19=0x00000000
8000000: global: f20=0x00000000
8000000: global: f21=0x00000000
8000000: global: f22=0x00000000
8000000: global: f23=0x00000000
8000000: global: f24=0x00000000
8000000: global: f25=0x00000000
8000000: global: f26=0x00000000
8000000: global: f27=0x00000000
8000000: global: f28=0x00000000
8000000: global: f29=0x00000000
8000000: global: f30=0x00000000
8000000: global: f31=0x00000000
8000000: system.cpu.memory: Log4GUI: memory: 8000000: 0: 10098: addi x1, x1, 300
8000000: system.cpu.execute: Log4GUI: execute: 8000000: 0: 1009c: lb x3, 0(x1): 0
8000000: system.cpu.decode: Log4GUI: decode: 8000000: 0: 100a0: auipc x2, 1
8000000: system.cpu.fetch1: Log4GUI: fetch1: 8000000: 0: 100a4: <assembly>
9000000: system.cpu.writeback: Log4GUI: writeback: 9000000: 0: 10098: addi x1, x1, 300
9000000: system.cpu.writeback: REGISTERS
9000000: global: x0=0x00000000
9000000: global: x1=0x000111c0
9000000: global: x2=0x7fffff90
9000000: global: x3=0x00000000
9000000: global: x4=0x00000000
9000000: global: x5=0x00000000
9000000: global: x6=0x00000000
9000000: global: x7=0x00000000
9000000: global: x8=0x00000000
9000000: global: x9=0x00000000
9000000: global: x10=0x00000000
9000000: global: x11=0x00000000
9000000: global: x12=0x00000000
9000000: global: x13=0x00000000
9000000: global: x14=0x00000000
9000000: global: x15=0x00000000
9000000: global: x16=0x00000000
9000000: global: x17=0x00000000
9000000: global: x18=0x00000000
9000000: global: x19=0x00000000
9000000: global: x20=0x00000000
9000000: global: x21=0x00000000
9000000: global: x22=0x00000000
9000000: global: x23=0x00000000
9000000: global: x24=0x00000000
9000000: global: x25=0x00000000
9000000: global: x26=0x00000000
9000000: global: x27=0x00000000
9000000: global: x28=0x00000000
9000000: global: x29=0x00000000
9000000: global: x30=0x00000000
9000000: global: x31=0x00000000
9000000: global: f0=0x00000000
9000000: global: f1=0x00000000
9000000: global: f2=0x00000000
9000000: global: f3=0x00000000
9000000: global: f4=0x00000000
9000000: global: f5=0x00000000
9000000: global: f6=0x00000000
9000000: global: f7=0x00000000
9000000: global: f8=0x00000000
9000000: global: f9=0x00000000
9000000: global: f10=0x00000000
9000000: global: f11=0x00000000
9000000: global: f12=0x00000000
9000000: global: f13=0x00000000
9000000: global: f14=0x00000000
9000000: global: f15=0x00000000
9000000: global: f16=0x00000000
9000000: global: f17=0x00000000
9000000: global: f18=0x00000000
9000000: global: f19=0x00000000
9000000: global: f20=0x00000000
9000000: global: f21=0x00000000
9000000: global: f22=0x00000000
9000000: global: f23=0x00000000
9000000: global: f24=0x00000000
9000000: global: f25=0x00000000
9000000: global: f26=0x00000000
9000000: global: f27=0x00000000
9000000: global: f28=0x00000000
9000000: global: f29=0x00000000
9000000: global: f30=0x00000000
9000000: global: f31=0x00000000
9000000: system.cpu.memory: Log4GUI: memory: 9000000: 0: 1009c: lb x3, 0(x1)
9000000: system.cpu.execute: Log4GUI: execute: 9000000: 0: 100a0: auipc x2, 1: 0
9000000: system.cpu.decode: Log4GUI: decode: 9000000: 0: 100a4: addi x2, x2, 298
9000000: system.cpu.fetch1: Log4GUI: fetch1: 9000000: 0: 100a8: <assembly>
10000000: system.cpu.memory: Log4GUI: memory: 10000000: 1: 1009c: lb x3, 0(x1)
10000000: system.cpu.execute: Log4GUI: execute: 10000000: 1: 100a0: auipc x2, 1: 0
10000000: system.cpu.decode: Log4GUI: decode: 10000000: 1: 100a4: addi x2, x2, 298
10000000: system.cpu.fetch1: Log4GUI: fetch1: 10000000: 1: 100a8: <assembly>
11000000: system.cpu.decode: Log4GUI: decode: 11000000: 1: 100a4: addi x2, x2, 298
11000000: system.cpu.fetch1: Log4GUI: fetch1: 11000000: 1: 100a8: <assembly>
12000000: system.cpu.writeback: Log4GUI: writeback: 12000000: 0: 1009c: lb x3, 0(x1)
12000000: system.cpu.writeback: REGISTERS
12000000: global: x0=0x00000000
12000000: global: x1=0x000111c0
12000000: global: x2=0x7fffff90
12000000: global: x3=0x00000002
12000000: global: x4=0x00000000
12000000: global: x5=0x00000000
12000000: global: x6=0x00000000
12000000: global: x7=0x00000000
12000000: global: x8=0x00000000
12000000: global: x9=0x00000000
12000000: global: x10=0x00000000
12000000: global: x11=0x00000000
12000000: global: x12=0x00000000
12000000: global: x13=0x00000000
12000000: global: x14=0x00000000
12000000: global: x15=0x00000000
12000000: global: x16=0x00000000
12000000: global: x17=0x00000000
12000000: global: x18=0x00000000
12000000: global: x19=0x00000000
12000000: global: x20=0x00000000
12000000: global: x21=0x00000000
12000000: global: x22=0x00000000
12000000: global: x23=0x00000000
12000000: global: x24=0x00000000
12000000: global: x25=0x00000000
12000000: global: x26=0x00000000
12000000: global: x27=0x00000000
12000000: global: x28=0x00000000
12000000: global: x29=0x00000000
12000000: global: x30=0x00000000
12000000: global: x31=0x00000000
12000000: global: f0=0x00000000
12000000: global: f1=0x00000000
12000000: global: f2=0x00000000
12000000: global: f3=0x00000000
12000000: global: f4=0x00000000
12000000: global: f5=0x00000000
12000000: global: f6=0x00000000
12000000: global: f7=0x00000000
12000000: global: f8=0x00000000
12000000: global: f9=0x00000000
12000000: global: f10=0x00000000
12000000: global: f11=0x00000000
12000000: global: f12=0x00000000
12000000: global: f13=0x00000000
12000000: global: f14=0x00000000
12000000: global: f15=0x00000000
12000000: global: f16=0x00000000
12000000: global: f17=0x00000000
12000000: global: f18=0x00000000
12000000: global: f19=0x00000000
12000000: global: f20=0x00000000
12000000: global: f21=0x00000000
12000000: global: f22=0x00000000
12000000: global: f23=0x00000000
12000000: global: f24=0x00000000
12000000: global: f25=0x00000000
12000000: global: f26=0x00000000
12000000: global: f27=0x00000000
12000000: global: f28=0x00000000
12000000: global: f29=0x00000000
12000000: global: f30=0x00000000
12000000: global: f31=0x00000000
12000000: system.cpu.memory: Log4GUI: memory: 12000000: 0: 100a0: auipc x2, 1
12000000: system.cpu.execute: Log4GUI: execute: 12000000: 0: 100a4: addi x2, x2, 298: 0
12000000: system.cpu.decode: Log4GUI: decode: 12000000: 0: 100a8: lb x3, 0(x2)
12000000: system.cpu.fetch1: Log4GUI: fetch1: 12000000: 0: 100ac: <assembly>
13000000: system.cpu.writeback: Log4GUI: writeback: 13000000: 0: 100a0: auipc x2, 1
13000000: system.cpu.writeback: REGISTERS
13000000: global: x0=0x00000000
13000000: global: x1=0x000111c0
13000000: global: x2=0x000110a0
13000000: global: x3=0x00000002
13000000: global: x4=0x00000000
13000000: global: x5=0x00000000
13000000: global: x6=0x00000000
13000000: global: x7=0x00000000
13000000: global: x8=0x00000000
13000000: global: x9=0x00000000
13000000: global: x10=0x00000000
13000000: global: x11=0x00000000
13000000: global: x12=0x00000000
13000000: global: x13=0x00000000
13000000: global: x14=0x00000000
13000000: global: x15=0x00000000
13000000: global: x16=0x00000000
13000000: global: x17=0x00000000
13000000: global: x18=0x00000000
13000000: global: x19=0x00000000
13000000: global: x20=0x00000000
13000000: global: x21=0x00000000
13000000: global: x22=0x00000000
13000000: global: x23=0x00000000
13000000: global: x24=0x00000000
13000000: global: x25=0x00000000
13000000: global: x26=0x00000000
13000000: global: x27=0x00000000
13000000: global: x28=0x00000000
13000000: global: x29=0x00000000
13000000: global: x30=0x00000000
13000000: global: x31=0x00000000
13000000: global: f0=0x00000000
13000000: global: f1=0x00000000
13000000: global: f2=0x00000000
13000000: global: f3=0x00000000
13000000: global: f4=0x00000000
13000000: global: f5=0x00000000
13000000: global: f6=0x00000000
13000000: global: f7=0x00000000
13000000: global: f8=0x00000000
13000000: global: f9=0x00000000
13000000: global: f10=0x00000000
13000000: global: f11=0x00000000
13000000: global: f12=0x00000000
13000000: global: f13=0x00000000
13000000: global: f14=0x00000000
13000000: global: f15=0x00000000
13000000: global: f16=0x00000000
13000000: global: f17=0x00000000
13000000: global: f18=0x00000000
13000000: global: f19=0x00000000
13000000: global: f20=0x00000000
13000000: global: f21=0x00000000
13000000: global: f22=0x00000000
13000000: global: f23=0x00000000
13000000: global: f24=0x00000000
13000000: global: f25=0x00000000
13000000: global: f26=0x00000000
13000000: global: f27=0x00000000
13000000: global: f28=0x00000000
13000000: global: f29=0x00000000
13000000: global: f30=0x00000000
13000000: global: f31=0x00000000
13000000: system.cpu.memory: Log4GUI: memory: 13000000: 0: 100a4: addi x2, x2, 298
13000000: system.cpu.execute: Log4GUI: execute: 13000000: 0: 100a8: lb x3, 0(x2): 0
13000000: system.cpu.decode: Log4GUI: decode: 13000000: 0: 100ac: auipc x11, 1
13000000: system.cpu.fetch1: Log4GUI: fetch1: 13000000: 0: 100b0: <assembly>
14000000: system.cpu.writeback: Log4GUI: writeback: 14000000: 0: 100a4: addi x2, x2, 298
14000000: system.cpu.writeback: REGISTERS
14000000: global: x0=0x00000000
14000000: global: x1=0x000111c0
14000000: global: x2=0x000111ca
14000000: global: x3=0x00000002
14000000: global: x4=0x00000000
14000000: global: x5=0x00000000
14000000: global: x6=0x00000000
14000000: global: x7=0x00000000
14000000: global: x8=0x00000000
14000000: global: x9=0x00000000
14000000: global: x10=0x00000000
14000000: global: x11=0x00000000
14000000: global: x12=0x00000000
14000000: global: x13=0x00000000
14000000: global: x14=0x00000000
14000000: global: x15=0x00000000
14000000: global: x16=0x00000000
14000000: global: x17=0x00000000
14000000: global: x18=0x00000000
14000000: global: x19=0x00000000
14000000: global: x20=0x00000000
14000000: global: x21=0x00000000
14000000: global: x22=0x00000000
14000000: global: x23=0x00000000
14000000: global: x24=0x00000000
14000000: global: x25=0x00000000
14000000: global: x26=0x00000000
14000000: global: x27=0x00000000
14000000: global: x28=0x00000000
14000000: global: x29=0x00000000
14000000: global: x30=0x00000000
14000000: global: x31=0x00000000
14000000: global: f0=0x00000000
14000000: global: f1=0x00000000
14000000: global: f2=0x00000000
14000000: global: f3=0x00000000
14000000: global: f4=0x00000000
14000000: global: f5=0x00000000
14000000: global: f6=0x00000000
14000000: global: f7=0x00000000
14000000: global: f8=0x00000000
14000000: global: f9=0x00000000
14000000: global: f10=0x00000000
14000000: global: f11=0x00000000
14000000: global: f12=0x00000000
14000000: global: f13=0x00000000
14000000: global: f14=0x00000000
14000000: global: f15=0x00000000
14000000: global: f16=0x00000000
14000000: global: f17=0x00000000
14000000: global: f18=0x00000000
14000000: global: f19=0x00000000
14000000: global: f20=0x00000000
14000000: global: f21=0x00000000
14000000: global: f22=0x00000000
14000000: global: f23=0x00000000
14000000: global: f24=0x00000000
14000000: global: f25=0x00000000
14000000: global: f26=0x00000000
14000000: global: f27=0x00000000
14000000: global: f28=0x00000000
14000000: global: f29=0x00000000
14000000: global: f30=0x00000000
14000000: global: f31=0x00000000
14000000: system.cpu.memory: Log4GUI: memory: 14000000: 0: 100a8: lb x3, 0(x2)
14000000: system.cpu.execute: Log4GUI: execute: 14000000: 0: 100ac: auipc x11, 1: 0
14000000: system.cpu.decode: Log4GUI: decode: 14000000: 0: 100b0: addi x11, x11, 296
14000000: system.cpu.fetch1: Log4GUI: fetch1: 14000000: 0: 100b4: <assembly>
15000000: system.cpu.writeback: Log4GUI: writeback: 15000000: 0: 100a8: lb x3, 0(x2)
15000000: system.cpu.writeback: REGISTERS
15000000: global: x0=0x00000000
15000000: global: x1=0x000111c0
15000000: global: x2=0x000111ca
15000000: global: x3=0x00000004
15000000: global: x4=0x00000000
15000000: global: x5=0x00000000
15000000: global: x6=0x00000000
15000000: global: x7=0x00000000
15000000: global: x8=0x00000000
15000000: global: x9=0x00000000
15000000: global: x10=0x00000000
15000000: global: x11=0x00000000
15000000: global: x12=0x00000000
15000000: global: x13=0x00000000
15000000: global: x14=0x00000000
15000000: global: x15=0x00000000
15000000: global: x16=0x00000000
15000000: global: x17=0x00000000
15000000: global: x18=0x00000000
15000000: global: x19=0x00000000
15000000: global: x20=0x00000000
15000000: global: x21=0x00000000
15000000: global: x22=0x00000000
15000000: global: x23=0x00000000
15000000: global: x24=0x00000000
15000000: global: x25=0x00000000
15000000: global: x26=0x00000000
15000000: global: x27=0x00000000
15000000: global: x28=0x00000000
15000000: global: x29=0x00000000
15000000: global: x30=0x00000000
15000000: global: x31=0x00000000
15000000: global: f0=0x00000000
15000000: global: f1=0x00000000
15000000: global: f2=0x00000000
15000000: global: f3=0x00000000
15000000: global: f4=0x00000000
15000000: global: f5=0x00000000
15000000: global: f6=0x00000000
15000000: global: f7=0x00000000
15000000: global: f8=0x00000000
15000000: global: f9=0x00000000
15000000: global: f10=0x00000000
15000000: global: f11=0x00000000
15000000: global: f12=0x00000000
15000000: global: f13=0x00000000
15000000: global: f14=0x00000000
15000000: global: f15=0x00000000
15000000: global: f16=0x00000000
15000000: global: f17=0x00000000
15000000: global: f18=0x00000000
15000000: global: f19=0x00000000
15000000: global: f20=0x00000000
15000000: global: f21=0x00000000
15000000: global: f22=0x00000000
15000000: global: f23=0x00000000
15000000: global: f24=0x00000000
15000000: global: f25=0x00000000
15000000: global: f26=0x00000000
15000000: global: f27=0x00000000
15000000: global: f28=0x00000000
15000000: global: f29=0x00000000
15000000: global: f30=0x00000000
15000000: global: f31=0x00000000
15000000: system.cpu.memory: Log4GUI: memory: 15000000: 0: 100ac: auipc x11, 1
15000000: system.cpu.execute: Log4GUI: execute: 15000000: 0: 100b0: addi x11, x11, 296: 0
15000000: system.cpu.decode: Log4GUI: decode: 15000000: 0: 100b4: lb x3, 0(x11)
15000000: system.cpu.fetch1: Log4GUI: fetch1: 15000000: 0: 100b8: <assembly>
16000000: system.cpu.writeback: Log4GUI: writeback: 16000000: 0: 100ac: auipc x11, 1
16000000: system.cpu.writeback: REGISTERS
16000000: global: x0=0x00000000
16000000: global: x1=0x000111c0
16000000: global: x2=0x000111ca
16000000: global: x3=0x00000004
16000000: global: x4=0x00000000
16000000: global: x5=0x00000000
16000000: global: x6=0x00000000
16000000: global: x7=0x00000000
16000000: global: x8=0x00000000
16000000: global: x9=0x00000000
16000000: global: x10=0x00000000
16000000: global: x11=0x000110ac
16000000: global: x12=0x00000000
16000000: global: x13=0x00000000
16000000: global: x14=0x00000000
16000000: global: x15=0x00000000
16000000: global: x16=0x00000000
16000000: global: x17=0x00000000
16000000: global: x18=0x00000000
16000000: global: x19=0x00000000
16000000: global: x20=0x00000000
16000000: global: x21=0x00000000
16000000: global: x22=0x00000000
16000000: global: x23=0x00000000
16000000: global: x24=0x00000000
16000000: global: x25=0x00000000
16000000: global: x26=0x00000000
16000000: global: x27=0x00000000
16000000: global: x28=0x00000000
16000000: global: x29=0x00000000
16000000: global: x30=0x00000000
16000000: global: x31=0x00000000
16000000: global: f0=0x00000000
16000000: global: f1=0x00000000
16000000: global: f2=0x00000000
16000000: global: f3=0x00000000
16000000: global: f4=0x00000000
16000000: global: f5=0x00000000
16000000: global: f6=0x00000000
16000000: global: f7=0x00000000
16000000: global: f8=0x00000000
16000000: global: f9=0x00000000
16000000: global: f10=0x00000000
16000000: global: f11=0x00000000
16000000: global: f12=0x00000000
16000000: global: f13=0x00000000
16000000: global: f14=0x00000000
16000000: global: f15=0x00000000
16000000: global: f16=0x00000000
16000000: global: f17=0x00000000
16000000: global: f18=0x00000000
16000000: global: f19=0x00000000
16000000: global: f20=0x00000000
16000000: global: f21=0x00000000
16000000: global: f22=0x00000000
16000000: global: f23=0x00000000
16000000: global: f24=0x00000000
16000000: global: f25=0x00000000
16000000: global: f26=0x00000000
16000000: global: f27=0x00000000
16000000: global: f28=0x00000000
16000000: global: f29=0x00000000
16000000: global: f30=0x00000000
16000000: global: f31=0x00000000
16000000: system.cpu.memory: Log4GUI: memory: 16000000: 0: 100b0: addi x11, x11, 296
16000000: system.cpu.execute: Log4GUI: execute: 16000000: 0: 100b4: lb x3, 0(x11): 0
16000000: system.cpu.decode: Log4GUI: decode: 16000000: 0: 100b8: auipc x14, 1
16000000: system.cpu.fetch1: Log4GUI: fetch1: 16000000: 0: 100bc: <assembly>
17000000: system.cpu.writeback: Log4GUI: writeback: 17000000: 0: 100b0: addi x11, x11, 296
17000000: system.cpu.writeback: REGISTERS
17000000: global: x0=0x00000000
17000000: global: x1=0x000111c0
17000000: global: x2=0x000111ca
17000000: global: x3=0x00000004
17000000: global: x4=0x00000000
17000000: global: x5=0x00000000
17000000: global: x6=0x00000000
17000000: global: x7=0x00000000
17000000: global: x8=0x00000000
17000000: global: x9=0x00000000
17000000: global: x10=0x00000000
17000000: global: x11=0x000111d4
17000000: global: x12=0x00000000
17000000: global: x13=0x00000000
17000000: global: x14=0x00000000
17000000: global: x15=0x00000000
17000000: global: x16=0x00000000
17000000: global: x17=0x00000000
17000000: global: x18=0x00000000
17000000: global: x19=0x00000000
17000000: global: x20=0x00000000
17000000: global: x21=0x00000000
17000000: global: x22=0x00000000
17000000: global: x23=0x00000000
17000000: global: x24=0x00000000
17000000: global: x25=0x00000000
17000000: global: x26=0x00000000
17000000: global: x27=0x00000000
17000000: global: x28=0x00000000
17000000: global: x29=0x00000000
17000000: global: x30=0x00000000
17000000: global: x31=0x00000000
17000000: global: f0=0x00000000
17000000: global: f1=0x00000000
17000000: global: f2=0x00000000
17000000: global: f3=0x00000000
17000000: global: f4=0x00000000
17000000: global: f5=0x00000000
17000000: global: f6=0x00000000
17000000: global: f7=0x00000000
17000000: global: f8=0x00000000
17000000: global: f9=0x00000000
17000000: global: f10=0x00000000
17000000: global: f11=0x00000000
17000000: global: f12=0x00000000
17000000: global: f13=0x00000000
17000000: global: f14=0x00000000
17000000: global: f15=0x00000000
17000000: global: f16=0x00000000
17000000: global: f17=0x00000000
17000000: global: f18=0x00000000
17000000: global: f19=0x00000000
17000000: global: f20=0x00000000
17000000: global: f21=0x00000000
17000000: global: f22=0x00000000
17000000: global: f23=0x00000000
17000000: global: f24=0x00000000
17000000: global: f25=0x00000000
17000000: global: f26=0x00000000
17000000: global: f27=0x00000000
17000000: global: f28=0x00000000
17000000: global: f29=0x00000000
17000000: global: f30=0x00000000
17000000: global: f31=0x00000000
17000000: system.cpu.memory: Log4GUI: memory: 17000000: 0: 100b4: lb x3, 0(x11)
17000000: system.cpu.execute: Log4GUI: execute: 17000000: 0: 100b8: auipc x14, 1: 0
17000000: system.cpu.decode: Log4GUI: decode: 17000000: 0: 100bc: addi x14, x14, 295
17000000: system.cpu.fetch1: Log4GUI: fetch1: 17000000: 0: 100c0: <assembly>
18000000: system.cpu.writeback: Log4GUI: writeback: 18000000: 0: 100b4: lb x3, 0(x11)
18000000: system.cpu.writeback: REGISTERS
18000000: global: x0=0x00000000
18000000: global: x1=0x000111c0
18000000: global: x2=0x000111ca
18000000: global: x3=0x00000000
18000000: global: x4=0x00000000
18000000: global: x5=0x00000000
18000000: global: x6=0x00000000
18000000: global: x7=0x00000000
18000000: global: x8=0x00000000
18000000: global: x9=0x00000000
18000000: global: x10=0x00000000
18000000: global: x11=0x000111d4
18000000: global: x12=0x00000000
18000000: global: x13=0x00000000
18000000: global: x14=0x00000000
18000000: global: x15=0x00000000
18000000: global: x16=0x00000000
18000000: global: x17=0x00000000
18000000: global: x18=0x00000000
18000000: global: x19=0x00000000
18000000: global: x20=0x00000000
18000000: global: x21=0x00000000
18000000: global: x22=0x00000000
18000000: global: x23=0x00000000
18000000: global: x24=0x00000000
18000000: global: x25=0x00000000
18000000: global: x26=0x00000000
18000000: global: x27=0x00000000
18000000: global: x28=0x00000000
18000000: global: x29=0x00000000
18000000: global: x30=0x00000000
18000000: global: x31=0x00000000
18000000: global: f0=0x00000000
18000000: global: f1=0x00000000
18000000: global: f2=0x00000000
18000000: global: f3=0x00000000
18000000: global: f4=0x00000000
18000000: global: f5=0x00000000
18000000: global: f6=0x00000000
18000000: global: f7=0x00000000
18000000: global: f8=0x00000000
18000000: global: f9=0x00000000
18000000: global: f10=0x00000000
18000000: global: f11=0x00000000
18000000: global: f12=0x00000000
18000000: global: f13=0x00000000
18000000: global: f14=0x00000000
18000000: global: f15=0x00000000
18000000: global: f16=0x00000000
18000000: global: f17=0x00000000
18000000: global: f18=0x00000000
18000000: global: f19=0x00000000
18000000: global: f20=0x00000000
18000000: global: f21=0x00000000
18000000: global: f22=0x00000000
18000000: global: f23=0x00000000
18000000: global: f24=0x00000000
18000000: global: f25=0x00000000
18000000: global: f26=0x00000000
18000000: global: f27=0x00000000
18000000: global: f28=0x00000000
18000000: global: f29=0x00000000
18000000: global: f30=0x00000000
18000000: global: f31=0x00000000
18000000: system.cpu.memory: Log4GUI: memory: 18000000: 0: 100b8: auipc x14, 1
18000000: system.cpu.execute: Log4GUI: execute: 18000000: 0: 100bc: addi x14, x14, 295: 0
18000000: system.cpu.decode: Log4GUI: decode: 18000000: 0: 100c0: auipc x8, 1
18000000: system.cpu.fetch1: Log4GUI: fetch1: 18000000: 0: 100c4: <assembly>
19000000: system.cpu.writeback: Log4GUI: writeback: 19000000: 0: 100b8: auipc x14, 1
19000000: system.cpu.writeback: REGISTERS
19000000: global: x0=0x00000000
19000000: global: x1=0x000111c0
19000000: global: x2=0x000111ca
19000000: global: x3=0x00000000
19000000: global: x4=0x00000000
19000000: global: x5=0x00000000
19000000: global: x6=0x00000000
19000000: global: x7=0x00000000
19000000: global: x8=0x00000000
19000000: global: x9=0x00000000
19000000: global: x10=0x00000000
19000000: global: x11=0x000111d4
19000000: global: x12=0x00000000
19000000: global: x13=0x00000000
19000000: global: x14=0x000110b8
19000000: global: x15=0x00000000
19000000: global: x16=0x00000000
19000000: global: x17=0x00000000
19000000: global: x18=0x00000000
19000000: global: x19=0x00000000
19000000: global: x20=0x00000000
19000000: global: x21=0x00000000
19000000: global: x22=0x00000000
19000000: global: x23=0x00000000
19000000: global: x24=0x00000000
19000000: global: x25=0x00000000
19000000: global: x26=0x00000000
19000000: global: x27=0x00000000
19000000: global: x28=0x00000000
19000000: global: x29=0x00000000
19000000: global: x30=0x00000000
19000000: global: x31=0x00000000
19000000: global: f0=0x00000000
19000000: global: f1=0x00000000
19000000: global: f2=0x00000000
19000000: global: f3=0x00000000
19000000: global: f4=0x00000000
19000000: global: f5=0x00000000
19000000: global: f6=0x00000000
19000000: global: f7=0x00000000
19000000: global: f8=0x00000000
19000000: global: f9=0x00000000
19000000: global: f10=0x00000000
19000000: global: f11=0x00000000
19000000: global: f12=0x00000000
19000000: global: f13=0x00000000
19000000: global: f14=0x00000000
19000000: global: f15=0x00000000
19000000: global: f16=0x00000000
19000000: global: f17=0x00000000
19000000: global: f18=0x00000000
19000000: global: f19=0x00000000
19000000: global: f20=0x00000000
19000000: global: f21=0x00000000
19000000: global: f22=0x00000000
19000000: global: f23=0x00000000
19000000: global: f24=0x00000000
19000000: global: f25=0x00000000
19000000: global: f26=0x00000000
19000000: global: f27=0x00000000
19000000: global: f28=0x00000000
19000000: global: f29=0x00000000
19000000: global: f30=0x00000000
19000000: global: f31=0x00000000
19000000: system.cpu.memory: Log4GUI: memory: 19000000: 0: 100bc: addi x14, x14, 295
19000000: system.cpu.execute: Log4GUI: execute: 19000000: 0: 100c0: auipc x8, 1: 0
19000000: system.cpu.decode: Log4GUI: decode: 19000000: 0: 100c4: lb x8, 287(x8)
19000000: system.cpu.fetch1: Log4GUI: fetch1: 19000000: 0: 100c8: <assembly>
20000000: system.cpu.writeback: Log4GUI: writeback: 20000000: 0: 100bc: addi x14, x14, 295
20000000: system.cpu.writeback: REGISTERS
20000000: global: x0=0x00000000
20000000: global: x1=0x000111c0
20000000: global: x2=0x000111ca
20000000: global: x3=0x00000000
20000000: global: x4=0x00000000
20000000: global: x5=0x00000000
20000000: global: x6=0x00000000
20000000: global: x7=0x00000000
20000000: global: x8=0x00000000
20000000: global: x9=0x00000000
20000000: global: x10=0x00000000
20000000: global: x11=0x000111d4
20000000: global: x12=0x00000000
20000000: global: x13=0x00000000
20000000: global: x14=0x000111df
20000000: global: x15=0x00000000
20000000: global: x16=0x00000000
20000000: global: x17=0x00000000
20000000: global: x18=0x00000000
20000000: global: x19=0x00000000
20000000: global: x20=0x00000000
20000000: global: x21=0x00000000
20000000: global: x22=0x00000000
20000000: global: x23=0x00000000
20000000: global: x24=0x00000000
20000000: global: x25=0x00000000
20000000: global: x26=0x00000000
20000000: global: x27=0x00000000
20000000: global: x28=0x00000000
20000000: global: x29=0x00000000
20000000: global: x30=0x00000000
20000000: global: x31=0x00000000
20000000: global: f0=0x00000000
20000000: global: f1=0x00000000
20000000: global: f2=0x00000000
20000000: global: f3=0x00000000
20000000: global: f4=0x00000000
20000000: global: f5=0x00000000
20000000: global: f6=0x00000000
20000000: global: f7=0x00000000
20000000: global: f8=0x00000000
20000000: global: f9=0x00000000
20000000: global: f10=0x00000000
20000000: global: f11=0x00000000
20000000: global: f12=0x00000000
20000000: global: f13=0x00000000
20000000: global: f14=0x00000000
20000000: global: f15=0x00000000
20000000: global: f16=0x00000000
20000000: global: f17=0x00000000
20000000: global: f18=0x00000000
20000000: global: f19=0x00000000
20000000: global: f20=0x00000000
20000000: global: f21=0x00000000
20000000: global: f22=0x00000000
20000000: global: f23=0x00000000
20000000: global: f24=0x00000000
20000000: global: f25=0x00000000
20000000: global: f26=0x00000000
20000000: global: f27=0x00000000
20000000: global: f28=0x00000000
20000000: global: f29=0x00000000
20000000: global: f30=0x00000000
20000000: global: f31=0x00000000
20000000: system.cpu.memory: Log4GUI: memory: 20000000: 0: 100c0: auipc x8, 1
20000000: system.cpu.execute: Log4GUI: execute: 20000000: 0: 100c4: lb x8, 287(x8): 0
20000000: system.cpu.decode: Log4GUI: decode: 20000000: 0: 100c8: auipc x15, 1
20000000: system.cpu.fetch1: Log4GUI: fetch1: 20000000: 0: 100cc: <assembly>
21000000: system.cpu.writeback: Log4GUI: writeback: 21000000: 0: 100c0: auipc x8, 1
21000000: system.cpu.writeback: REGISTERS
21000000: global: x0=0x00000000
21000000: global: x1=0x000111c0
21000000: global: x2=0x000111ca
21000000: global: x3=0x00000000
21000000: global: x4=0x00000000
21000000: global: x5=0x00000000
21000000: global: x6=0x00000000
21000000: global: x7=0x00000000
21000000: global: x8=0x000110c0
21000000: global: x9=0x00000000
21000000: global: x10=0x00000000
21000000: global: x11=0x000111d4
21000000: global: x12=0x00000000
21000000: global: x13=0x00000000
21000000: global: x14=0x000111df
21000000: global: x15=0x00000000
21000000: global: x16=0x00000000
21000000: global: x17=0x00000000
21000000: global: x18=0x00000000
21000000: global: x19=0x00000000
21000000: global: x20=0x00000000
21000000: global: x21=0x00000000
21000000: global: x22=0x00000000
21000000: global: x23=0x00000000
21000000: global: x24=0x00000000
21000000: global: x25=0x00000000
21000000: global: x26=0x00000000
21000000: global: x27=0x00000000
21000000: global: x28=0x00000000
21000000: global: x29=0x00000000
21000000: global: x30=0x00000000
21000000: global: x31=0x00000000
21000000: global: f0=0x00000000
21000000: global: f1=0x00000000
21000000: global: f2=0x00000000
21000000: global: f3=0x00000000
21000000: global: f4=0x00000000
21000000: global: f5=0x00000000
21000000: global: f6=0x00000000
21000000: global: f7=0x00000000
21000000: global: f8=0x00000000
21000000: global: f9=0x00000000
21000000: global: f10=0x00000000
21000000: global: f11=0x00000000
21000000: global: f12=0x00000000
21000000: global: f13=0x00000000
21000000: global: f14=0x00000000
21000000: global: f15=0x00000000
21000000: global: f16=0x00000000
21000000: global: f17=0x00000000
21000000: global: f18=0x00000000
21000000: global: f19=0x00000000
21000000: global: f20=0x00000000
21000000: global: f21=0x00000000
21000000: global: f22=0x00000000
21000000: global: f23=0x00000000
21000000: global: f24=0x00000000
21000000: global: f25=0x00000000
21000000: global: f26=0x00000000
21000000: global: f27=0x00000000
21000000: global: f28=0x00000000
21000000: global: f29=0x00000000
21000000: global: f30=0x00000000
21000000: global: f31=0x00000000
21000000: system.cpu.memory: Log4GUI: memory: 21000000: 0: 100c4: lb x8, 287(x8)
21000000: system.cpu.execute: Log4GUI: execute: 21000000: 0: 100c8: auipc x15, 1: 0
21000000: system.cpu.decode: Log4GUI: decode: 21000000: 0: 100cc: addi x15, x15, 280
21000000: system.cpu.fetch1: Log4GUI: fetch1: 21000000: 0: 100d0: <assembly>
22000000: system.cpu.writeback: Log4GUI: writeback: 22000000: 0: 100c4: lb x8, 287(x8)
22000000: system.cpu.writeback: REGISTERS
22000000: global: x0=0x00000000
22000000: global: x1=0x000111c0
22000000: global: x2=0x000111ca
22000000: global: x3=0x00000000
22000000: global: x4=0x00000000
22000000: global: x5=0x00000000
22000000: global: x6=0x00000000
22000000: global: x7=0x00000000
22000000: global: x8=0x00000001
22000000: global: x9=0x00000000
22000000: global: x10=0x00000000
22000000: global: x11=0x000111d4
22000000: global: x12=0x00000000
22000000: global: x13=0x00000000
22000000: global: x14=0x000111df
22000000: global: x15=0x00000000
22000000: global: x16=0x00000000
22000000: global: x17=0x00000000
22000000: global: x18=0x00000000
22000000: global: x19=0x00000000
22000000: global: x20=0x00000000
22000000: global: x21=0x00000000
22000000: global: x22=0x00000000
22000000: global: x23=0x00000000
22000000: global: x24=0x00000000
22000000: global: x25=0x00000000
22000000: global: x26=0x00000000
22000000: global: x27=0x00000000
22000000: global: x28=0x00000000
22000000: global: x29=0x00000000
22000000: global: x30=0x00000000
22000000: global: x31=0x00000000
22000000: global: f0=0x00000000
22000000: global: f1=0x00000000
22000000: global: f2=0x00000000
22000000: global: f3=0x00000000
22000000: global: f4=0x00000000
22000000: global: f5=0x00000000
22000000: global: f6=0x00000000
22000000: global: f7=0x00000000
22000000: global: f8=0x00000000
22000000: global: f9=0x00000000
22000000: global: f10=0x00000000
22000000: global: f11=0x00000000
22000000: global: f12=0x00000000
22000000: global: f13=0x00000000
22000000: global: f14=0x00000000
22000000: global: f15=0x00000000
22000000: global: f16=0x00000000
22000000: global: f17=0x00000000
22000000: global: f18=0x00000000
22000000: global: f19=0x00000000
22000000: global: f20=0x00000000
22000000: global: f21=0x00000000
22000000: global: f22=0x00000000
22000000: global: f23=0x00000000
22000000: global: f24=0x00000000
22000000: global: f25=0x00000000
22000000: global: f26=0x00000000
22000000: global: f27=0x00000000
22000000: global: f28=0x00000000
22000000: global: f29=0x00000000
22000000: global: f30=0x00000000
22000000: global: f31=0x00000000
22000000: system.cpu.memory: Log4GUI: memory: 22000000: 0: 100c8: auipc x15, 1
22000000: system.cpu.execute: Log4GUI: execute: 22000000: 0: 100cc: addi x15, x15, 280: 0
22000000: system.cpu.decode: Log4GUI: decode: 22000000: 0: 100d0: auipc x16, 1
22000000: system.cpu.fetch1: Log4GUI: fetch1: 22000000: 0: 100d4: <assembly>
23000000: system.cpu.writeback: Log4GUI: writeback: 23000000: 0: 100c8: auipc x15, 1
23000000: system.cpu.writeback: REGISTERS
23000000: global: x0=0x00000000
23000000: global: x1=0x000111c0
23000000: global: x2=0x000111ca
23000000: global: x3=0x00000000
23000000: global: x4=0x00000000
23000000: global: x5=0x00000000
23000000: global: x6=0x00000000
23000000: global: x7=0x00000000
23000000: global: x8=0x00000001
23000000: global: x9=0x00000000
23000000: global: x10=0x00000000
23000000: global: x11=0x000111d4
23000000: global: x12=0x00000000
23000000: global: x13=0x00000000
23000000: global: x14=0x000111df
23000000: global: x15=0x000110c8
23000000: global: x16=0x00000000
23000000: global: x17=0x00000000
23000000: global: x18=0x00000000
23000000: global: x19=0x00000000
23000000: global: x20=0x00000000
23000000: global: x21=0x00000000
23000000: global: x22=0x00000000
23000000: global: x23=0x00000000
23000000: global: x24=0x00000000
23000000: global: x25=0x00000000
23000000: global: x26=0x00000000
23000000: global: x27=0x00000000
23000000: global: x28=0x00000000
23000000: global: x29=0x00000000
23000000: global: x30=0x00000000
23000000: global: x31=0x00000000
23000000: global: f0=0x00000000
23000000: global: f1=0x00000000
23000000: global: f2=0x00000000
23000000: global: f3=0x00000000
23000000: global: f4=0x00000000
23000000: global: f5=0x00000000
23000000: global: f6=0x00000000
23000000: global: f7=0x00000000
23000000: global: f8=0x00000000
23000000: global: f9=0x00000000
23000000: global: f10=0x00000000
23000000: global: f11=0x00000000
23000000: global: f12=0x00000000
23000000: global: f13=0x00000000
23000000: global: f14=0x00000000
23000000: global: f15=0x00000000
23000000: global: f16=0x00000000
23000000: global: f17=0x00000000
23000000: global: f18=0x00000000
23000000: global: f19=0x00000000
23000000: global: f20=0x00000000
23000000: global: f21=0x00000000
23000000: global: f22=0x00000000
23000000: global: f23=0x00000000
23000000: global: f24=0x00000000
23000000: global: f25=0x00000000
23000000: global: f26=0x00000000
23000000: global: f27=0x00000000
23000000: global: f28=0x00000000
23000000: global: f29=0x00000000
23000000: global: f30=0x00000000
23000000: global: f31=0x00000000
23000000: system.cpu.memory: Log4GUI: memory: 23000000: 0: 100cc: addi x15, x15, 280
23000000: system.cpu.execute: Log4GUI: execute: 23000000: 0: 100d0: auipc x16, 1: 0
23000000: system.cpu.decode: Log4GUI: decode: 23000000: 0: 100d4: addi x16, x16, 273
23000000: system.cpu.fetch1: Log4GUI: fetch1: 23000000: 0: 100d8: <assembly>
24000000: system.cpu.writeback: Log4GUI: writeback: 24000000: 0: 100cc: addi x15, x15, 280
24000000: system.cpu.writeback: REGISTERS
24000000: global: x0=0x00000000
24000000: global: x1=0x000111c0
24000000: global: x2=0x000111ca
24000000: global: x3=0x00000000
24000000: global: x4=0x00000000
24000000: global: x5=0x00000000
24000000: global: x6=0x00000000
24000000: global: x7=0x00000000
24000000: global: x8=0x00000001
24000000: global: x9=0x00000000
24000000: global: x10=0x00000000
24000000: global: x11=0x000111d4
24000000: global: x12=0x00000000
24000000: global: x13=0x00000000
24000000: global: x14=0x000111df
24000000: global: x15=0x000111e0
24000000: global: x16=0x00000000
24000000: global: x17=0x00000000
24000000: global: x18=0x00000000
24000000: global: x19=0x00000000
24000000: global: x20=0x00000000
24000000: global: x21=0x00000000
24000000: global: x22=0x00000000
24000000: global: x23=0x00000000
24000000: global: x24=0x00000000
24000000: global: x25=0x00000000
24000000: global: x26=0x00000000
24000000: global: x27=0x00000000
24000000: global: x28=0x00000000
24000000: global: x29=0x00000000
24000000: global: x30=0x00000000
24000000: global: x31=0x00000000
24000000: global: f0=0x00000000
24000000: global: f1=0x00000000
24000000: global: f2=0x00000000
24000000: global: f3=0x00000000
24000000: global: f4=0x00000000
24000000: global: f5=0x00000000
24000000: global: f6=0x00000000
24000000: global: f7=0x00000000
24000000: global: f8=0x00000000
24000000: global: f9=0x00000000
24000000: global: f10=0x00000000
24000000: global: f11=0x00000000
24000000: global: f12=0x00000000
24000000: global: f13=0x00000000
24000000: global: f14=0x00000000
24000000: global: f15=0x00000000
24000000: global: f16=0x00000000
24000000: global: f17=0x00000000
24000000: global: f18=0x00000000
24000000: global: f19=0x00000000
24000000: global: f20=0x00000000
24000000: global: f21=0x00000000
24000000: global: f22=0x00000000
24000000: global: f23=0x00000000
24000000: global: f24=0x00000000
24000000: global: f25=0x00000000
24000000: global: f26=0x00000000
24000000: global: f27=0x00000000
24000000: global: f28=0x00000000
24000000: global: f29=0x00000000
24000000: global: f30=0x00000000
24000000: global: f31=0x00000000
24000000: system.cpu.memory: Log4GUI: memory: 24000000: 0: 100d0: auipc x16, 1
24000000: system.cpu.execute: Log4GUI: execute: 24000000: 0: 100d4: addi x16, x16, 273: 0
24000000: system.cpu.decode: Log4GUI: decode: 24000000: 0: 100d8: auipc x5, 1
24000000: system.cpu.fetch1: Log4GUI: fetch1: 24000000: 0: 100dc: <assembly>
25000000: system.cpu.writeback: Log4GUI: writeback: 25000000: 0: 100d0: auipc x16, 1
25000000: system.cpu.writeback: REGISTERS
25000000: global: x0=0x00000000
25000000: global: x1=0x000111c0
25000000: global: x2=0x000111ca
25000000: global: x3=0x00000000
25000000: global: x4=0x00000000
25000000: global: x5=0x00000000
25000000: global: x6=0x00000000
25000000: global: x7=0x00000000
25000000: global: x8=0x00000001
25000000: global: x9=0x00000000
25000000: global: x10=0x00000000
25000000: global: x11=0x000111d4
25000000: global: x12=0x00000000
25000000: global: x13=0x00000000
25000000: global: x14=0x000111df
25000000: global: x15=0x000111e0
25000000: global: x16=0x000110d0
25000000: global: x17=0x00000000
25000000: global: x18=0x00000000
25000000: global: x19=0x00000000
25000000: global: x20=0x00000000
25000000: global: x21=0x00000000
25000000: global: x22=0x00000000
25000000: global: x23=0x00000000
25000000: global: x24=0x00000000
25000000: global: x25=0x00000000
25000000: global: x26=0x00000000
25000000: global: x27=0x00000000
25000000: global: x28=0x00000000
25000000: global: x29=0x00000000
25000000: global: x30=0x00000000
25000000: global: x31=0x00000000
25000000: global: f0=0x00000000
25000000: global: f1=0x00000000
25000000: global: f2=0x00000000
25000000: global: f3=0x00000000
25000000: global: f4=0x00000000
25000000: global: f5=0x00000000
25000000: global: f6=0x00000000
25000000: global: f7=0x00000000
25000000: global: f8=0x00000000
25000000: global: f9=0x00000000
25000000: global: f10=0x00000000
25000000: global: f11=0x00000000
25000000: global: f12=0x00000000
25000000: global: f13=0x00000000
25000000: global: f14=0x00000000
25000000: global: f15=0x00000000
25000000: global: f16=0x00000000
25000000: global: f17=0x00000000
25000000: global: f18=0x00000000
25000000: global: f19=0x00000000
25000000: global: f20=0x00000000
25000000: global: f21=0x00000000
25000000: global: f22=0x00000000
25000000: global: f23=0x00000000
25000000: global: f24=0x00000000
25000000: global: f25=0x00000000
25000000: global: f26=0x00000000
25000000: global: f27=0x00000000
25000000: global: f28=0x00000000
25000000: global: f29=0x00000000
25000000: global: f30=0x00000000
25000000: global: f31=0x00000000
25000000: system.cpu.memory: Log4GUI: memory: 25000000: 0: 100d4: addi x16, x16, 273
25000000: system.cpu.execute: Log4GUI: execute: 25000000: 0: 100d8: auipc x5, 1: 0
25000000: system.cpu.decode: Log4GUI: decode: 25000000: 0: 100dc: lb x5, 262(x5)
25000000: system.cpu.fetch1: Log4GUI: fetch1: 25000000: 0: 100e0: <assembly>
26000000: system.cpu.writeback: Log4GUI: writeback: 26000000: 0: 100d4: addi x16, x16, 273
26000000: system.cpu.writeback: REGISTERS
26000000: global: x0=0x00000000
26000000: global: x1=0x000111c0
26000000: global: x2=0x000111ca
26000000: global: x3=0x00000000
26000000: global: x4=0x00000000
26000000: global: x5=0x00000000
26000000: global: x6=0x00000000
26000000: global: x7=0x00000000
26000000: global: x8=0x00000001
26000000: global: x9=0x00000000
26000000: global: x10=0x00000000
26000000: global: x11=0x000111d4
26000000: global: x12=0x00000000
26000000: global: x13=0x00000000
26000000: global: x14=0x000111df
26000000: global: x15=0x000111e0
26000000: global: x16=0x000111e1
26000000: global: x17=0x00000000
26000000: global: x18=0x00000000
26000000: global: x19=0x00000000
26000000: global: x20=0x00000000
26000000: global: x21=0x00000000
26000000: global: x22=0x00000000
26000000: global: x23=0x00000000
26000000: global: x24=0x00000000
26000000: global: x25=0x00000000
26000000: global: x26=0x00000000
26000000: global: x27=0x00000000
26000000: global: x28=0x00000000
26000000: global: x29=0x00000000
26000000: global: x30=0x00000000
26000000: global: x31=0x00000000
26000000: global: f0=0x00000000
26000000: global: f1=0x00000000
26000000: global: f2=0x00000000
26000000: global: f3=0x00000000
26000000: global: f4=0x00000000
26000000: global: f5=0x00000000
26000000: global: f6=0x00000000
26000000: global: f7=0x00000000
26000000: global: f8=0x00000000
26000000: global: f9=0x00000000
26000000: global: f10=0x00000000
26000000: global: f11=0x00000000
26000000: global: f12=0x00000000
26000000: global: f13=0x00000000
26000000: global: f14=0x00000000
26000000: global: f15=0x00000000
26000000: global: f16=0x00000000
26000000: global: f17=0x00000000
26000000: global: f18=0x00000000
26000000: global: f19=0x00000000
26000000: global: f20=0x00000000
26000000: global: f21=0x00000000
26000000: global: f22=0x00000000
26000000: global: f23=0x00000000
26000000: global: f24=0x00000000
26000000: global: f25=0x00000000
26000000: global: f26=0x00000000
26000000: global: f27=0x00000000
26000000: global: f28=0x00000000
26000000: global: f29=0x00000000
26000000: global: f30=0x00000000
26000000: global: f31=0x00000000
26000000: system.cpu.memory: Log4GUI: memory: 26000000: 0: 100d8: auipc x5, 1
26000000: system.cpu.execute: Log4GUI: execute: 26000000: 0: 100dc: lb x5, 262(x5): 0
26000000: system.cpu.decode: Log4GUI: decode: 26000000: 0: 100e0: addi x6, x0, 0
26000000: system.cpu.fetch1: Log4GUI: fetch1: 26000000: 0: 100e4: <assembly>
27000000: system.cpu.writeback: Log4GUI: writeback: 27000000: 0: 100d8: auipc x5, 1
27000000: system.cpu.writeback: REGISTERS
27000000: global: x0=0x00000000
27000000: global: x1=0x000111c0
27000000: global: x2=0x000111ca
27000000: global: x3=0x00000000
27000000: global: x4=0x00000000
27000000: global: x5=0x000110d8
27000000: global: x6=0x00000000
27000000: global: x7=0x00000000
27000000: global: x8=0x00000001
27000000: global: x9=0x00000000
27000000: global: x10=0x00000000
27000000: global: x11=0x000111d4
27000000: global: x12=0x00000000
27000000: global: x13=0x00000000
27000000: global: x14=0x000111df
27000000: global: x15=0x000111e0
27000000: global: x16=0x000111e1
27000000: global: x17=0x00000000
27000000: global: x18=0x00000000
27000000: global: x19=0x00000000
27000000: global: x20=0x00000000
27000000: global: x21=0x00000000
27000000: global: x22=0x00000000
27000000: global: x23=0x00000000
27000000: global: x24=0x00000000
27000000: global: x25=0x00000000
27000000: global: x26=0x00000000
27000000: global: x27=0x00000000
27000000: global: x28=0x00000000
27000000: global: x29=0x00000000
27000000: global: x30=0x00000000
27000000: global: x31=0x00000000
27000000: global: f0=0x00000000
27000000: global: f1=0x00000000
27000000: global: f2=0x00000000
27000000: global: f3=0x00000000
27000000: global: f4=0x00000000
27000000: global: f5=0x00000000
27000000: global: f6=0x00000000
27000000: global: f7=0x00000000
27000000: global: f8=0x00000000
27000000: global: f9=0x00000000
27000000: global: f10=0x00000000
27000000: global: f11=0x00000000
27000000: global: f12=0x00000000
27000000: global: f13=0x00000000
27000000: global: f14=0x00000000
27000000: global: f15=0x00000000
27000000: global: f16=0x00000000
27000000: global: f17=0x00000000
27000000: global: f18=0x00000000
27000000: global: f19=0x00000000
27000000: global: f20=0x00000000
27000000: global: f21=0x00000000
27000000: global: f22=0x00000000
27000000: global: f23=0x00000000
27000000: global: f24=0x00000000
27000000: global: f25=0x00000000
27000000: global: f26=0x00000000
27000000: global: f27=0x00000000
27000000: global: f28=0x00000000
27000000: global: f29=0x00000000
27000000: global: f30=0x00000000
27000000: global: f31=0x00000000
27000000: system.cpu.memory: Log4GUI: memory: 27000000: 0: 100dc: lb x5, 262(x5)
27000000: system.cpu.execute: Log4GUI: execute: 27000000: 0: 100e0: addi x6, x0, 0: 0
27000000: system.cpu.decode: Log4GUI: decode: 27000000: 0: 100e4: addi x12, x0, 0
27000000: system.cpu.fetch1: Log4GUI: fetch1: 27000000: 0: 100e8: <assembly>
28000000: system.cpu.writeback: Log4GUI: writeback: 28000000: 0: 100dc: lb x5, 262(x5)
28000000: system.cpu.writeback: REGISTERS
28000000: global: x0=0x00000000
28000000: global: x1=0x000111c0
28000000: global: x2=0x000111ca
28000000: global: x3=0x00000000
28000000: global: x4=0x00000000
28000000: global: x5=0x0000000a
28000000: global: x6=0x00000000
28000000: global: x7=0x00000000
28000000: global: x8=0x00000001
28000000: global: x9=0x00000000
28000000: global: x10=0x00000000
28000000: global: x11=0x000111d4
28000000: global: x12=0x00000000
28000000: global: x13=0x00000000
28000000: global: x14=0x000111df
28000000: global: x15=0x000111e0
28000000: global: x16=0x000111e1
28000000: global: x17=0x00000000
28000000: global: x18=0x00000000
28000000: global: x19=0x00000000
28000000: global: x20=0x00000000
28000000: global: x21=0x00000000
28000000: global: x22=0x00000000
28000000: global: x23=0x00000000
28000000: global: x24=0x00000000
28000000: global: x25=0x00000000
28000000: global: x26=0x00000000
28000000: global: x27=0x00000000
28000000: global: x28=0x00000000
28000000: global: x29=0x00000000
28000000: global: x30=0x00000000
28000000: global: x31=0x00000000
28000000: global: f0=0x00000000
28000000: global: f1=0x00000000
28000000: global: f2=0x00000000
28000000: global: f3=0x00000000
28000000: global: f4=0x00000000
28000000: global: f5=0x00000000
28000000: global: f6=0x00000000
28000000: global: f7=0x00000000
28000000: global: f8=0x00000000
28000000: global: f9=0x00000000
28000000: global: f10=0x00000000
28000000: global: f11=0x00000000
28000000: global: f12=0x00000000
28000000: global: f13=0x00000000
28000000: global: f14=0x00000000
28000000: global: f15=0x00000000
28000000: global: f16=0x00000000
28000000: global: f17=0x00000000
28000000: global: f18=0x00000000
28000000: global: f19=0x00000000
28000000: global: f20=0x00000000
28000000: global: f21=0x00000000
28000000: global: f22=0x00000000
28000000: global: f23=0x00000000
28000000: global: f24=0x00000000
28000000: global: f25=0x00000000
28000000: global: f26=0x00000000
28000000: global: f27=0x00000000
28000000: global: f28=0x00000000
28000000: global: f29=0x00000000
28000000: global: f30=0x00000000
28000000: global: f31=0x00000000
28000000: system.cpu.memory: Log4GUI: memory: 28000000: 0: 100e0: addi x6, x0, 0
28000000: system.cpu.execute: Log4GUI: execute: 28000000: 0: 100e4: addi x12, x0, 0: 0
28000000: system.cpu.decode: Log4GUI: decode: 28000000: 0: 100e8: beq x5, x6, 60
28000000: system.cpu.fetch1: Log4GUI: fetch1: 28000000: 0: 100ec: <assembly>
29000000: system.cpu.writeback: Log4GUI: writeback: 29000000: 0: 100e0: addi x6, x0, 0
29000000: system.cpu.writeback: REGISTERS
29000000: global: x0=0x00000000
29000000: global: x1=0x000111c0
29000000: global: x2=0x000111ca
29000000: global: x3=0x00000000
29000000: global: x4=0x00000000
29000000: global: x5=0x0000000a
29000000: global: x6=0x00000000
29000000: global: x7=0x00000000
29000000: global: x8=0x00000001
29000000: global: x9=0x00000000
29000000: global: x10=0x00000000
29000000: global: x11=0x000111d4
29000000: global: x12=0x00000000
29000000: global: x13=0x00000000
29000000: global: x14=0x000111df
29000000: global: x15=0x000111e0
29000000: global: x16=0x000111e1
29000000: global: x17=0x00000000
29000000: global: x18=0x00000000
29000000: global: x19=0x00000000
29000000: global: x20=0x00000000
29000000: global: x21=0x00000000
29000000: global: x22=0x00000000
29000000: global: x23=0x00000000
29000000: global: x24=0x00000000
29000000: global: x25=0x00000000
29000000: global: x26=0x00000000
29000000: global: x27=0x00000000
29000000: global: x28=0x00000000
29000000: global: x29=0x00000000
29000000: global: x30=0x00000000
29000000: global: x31=0x00000000
29000000: global: f0=0x00000000
29000000: global: f1=0x00000000
29000000: global: f2=0x00000000
29000000: global: f3=0x00000000
29000000: global: f4=0x00000000
29000000: global: f5=0x00000000
29000000: global: f6=0x00000000
29000000: global: f7=0x00000000
29000000: global: f8=0x00000000
29000000: global: f9=0x00000000
29000000: global: f10=0x00000000
29000000: global: f11=0x00000000
29000000: global: f12=0x00000000
29000000: global: f13=0x00000000
29000000: global: f14=0x00000000
29000000: global: f15=0x00000000
29000000: global: f16=0x00000000
29000000: global: f17=0x00000000
29000000: global: f18=0x00000000
29000000: global: f19=0x00000000
29000000: global: f20=0x00000000
29000000: global: f21=0x00000000
29000000: global: f22=0x00000000
29000000: global: f23=0x00000000
29000000: global: f24=0x00000000
29000000: global: f25=0x00000000
29000000: global: f26=0x00000000
29000000: global: f27=0x00000000
29000000: global: f28=0x00000000
29000000: global: f29=0x00000000
29000000: global: f30=0x00000000
29000000: global: f31=0x00000000
29000000: system.cpu.memory: Log4GUI: memory: 29000000: 0: 100e4: addi x12, x0, 0
29000000: system.cpu.execute: Log4GUI: execute: 29000000: 0: 100e8: beq x5, x6, 60: 0
29000000: system.cpu.decode: Log4GUI: decode: 29000000: 0: 100ec: addi x7, x0, 0
29000000: system.cpu.fetch1: Log4GUI: fetch1: 29000000: 0: 100f0: <assembly>
30000000: system.cpu.writeback: Log4GUI: writeback: 30000000: 0: 100e4: addi x12, x0, 0
30000000: system.cpu.writeback: REGISTERS
30000000: global: x0=0x00000000
30000000: global: x1=0x000111c0
30000000: global: x2=0x000111ca
30000000: global: x3=0x00000000
30000000: global: x4=0x00000000
30000000: global: x5=0x0000000a
30000000: global: x6=0x00000000
30000000: global: x7=0x00000000
30000000: global: x8=0x00000001
30000000: global: x9=0x00000000
30000000: global: x10=0x00000000
30000000: global: x11=0x000111d4
30000000: global: x12=0x00000000
30000000: global: x13=0x00000000
30000000: global: x14=0x000111df
30000000: global: x15=0x000111e0
30000000: global: x16=0x000111e1
30000000: global: x17=0x00000000
30000000: global: x18=0x00000000
30000000: global: x19=0x00000000
30000000: global: x20=0x00000000
30000000: global: x21=0x00000000
30000000: global: x22=0x00000000
30000000: global: x23=0x00000000
30000000: global: x24=0x00000000
30000000: global: x25=0x00000000
30000000: global: x26=0x00000000
30000000: global: x27=0x00000000
30000000: global: x28=0x00000000
30000000: global: x29=0x00000000
30000000: global: x30=0x00000000
30000000: global: x31=0x00000000
30000000: global: f0=0x00000000
30000000: global: f1=0x00000000
30000000: global: f2=0x00000000
30000000: global: f3=0x00000000
30000000: global: f4=0x00000000
30000000: global: f5=0x00000000
30000000: global: f6=0x00000000
30000000: global: f7=0x00000000
30000000: global: f8=0x00000000
30000000: global: f9=0x00000000
30000000: global: f10=0x00000000
30000000: global: f11=0x00000000
30000000: global: f12=0x00000000
30000000: global: f13=0x00000000
30000000: global: f14=0x00000000
30000000: global: f15=0x00000000
30000000: global: f16=0x00000000
30000000: global: f17=0x00000000
30000000: global: f18=0x00000000
30000000: global: f19=0x00000000
30000000: global: f20=0x00000000
30000000: global: f21=0x00000000
30000000: global: f22=0x00000000
30000000: global: f23=0x00000000
30000000: global: f24=0x00000000
30000000: global: f25=0x00000000
30000000: global: f26=0x00000000
30000000: global: f27=0x00000000
30000000: global: f28=0x00000000
30000000: global: f29=0x00000000
30000000: global: f30=0x00000000
30000000: global: f31=0x00000000
30000000: system.cpu.memory: Log4GUI: memory: 30000000: 0: 100e8: beq x5, x6, 60
30000000: system.cpu.execute: Log4GUI: execute: 30000000: 0: 100ec: addi x7, x0, 0: 0
30000000: system.cpu.decode: Log4GUI: decode: 30000000: 0: 100f0: add x13, x1, x6
30000000: system.cpu.fetch1: Log4GUI: fetch1: 30000000: 0: 100f4: <assembly>
31000000: system.cpu.writeback: Log4GUI: writeback: 31000000: 0: 100e8: beq x5, x6, 60
31000000: system.cpu.writeback: REGISTERS
31000000: global: x0=0x00000000
31000000: global: x1=0x000111c0
31000000: global: x2=0x000111ca
31000000: global: x3=0x00000000
31000000: global: x4=0x00000000
31000000: global: x5=0x0000000a
31000000: global: x6=0x00000000
31000000: global: x7=0x00000000
31000000: global: x8=0x00000001
31000000: global: x9=0x00000000
31000000: global: x10=0x00000000
31000000: global: x11=0x000111d4
31000000: global: x12=0x00000000
31000000: global: x13=0x00000000
31000000: global: x14=0x000111df
31000000: global: x15=0x000111e0
31000000: global: x16=0x000111e1
31000000: global: x17=0x00000000
31000000: global: x18=0x00000000
31000000: global: x19=0x00000000
31000000: global: x20=0x00000000
31000000: global: x21=0x00000000
31000000: global: x22=0x00000000
31000000: global: x23=0x00000000
31000000: global: x24=0x00000000
31000000: global: x25=0x00000000
31000000: global: x26=0x00000000
31000000: global: x27=0x00000000
31000000: global: x28=0x00000000
31000000: global: x29=0x00000000
31000000: global: x30=0x00000000
31000000: global: x31=0x00000000
31000000: global: f0=0x00000000
31000000: global: f1=0x00000000
31000000: global: f2=0x00000000
31000000: global: f3=0x00000000
31000000: global: f4=0x00000000
31000000: global: f5=0x00000000
31000000: global: f6=0x00000000
31000000: global: f7=0x00000000
31000000: global: f8=0x00000000
31000000: global: f9=0x00000000
31000000: global: f10=0x00000000
31000000: global: f11=0x00000000
31000000: global: f12=0x00000000
31000000: global: f13=0x00000000
31000000: global: f14=0x00000000
31000000: global: f15=0x00000000
31000000: global: f16=0x00000000
31000000: global: f17=0x00000000
31000000: global: f18=0x00000000
31000000: global: f19=0x00000000
31000000: global: f20=0x00000000
31000000: global: f21=0x00000000
31000000: global: f22=0x00000000
31000000: global: f23=0x00000000
31000000: global: f24=0x00000000
31000000: global: f25=0x00000000
31000000: global: f26=0x00000000
31000000: global: f27=0x00000000
31000000: global: f28=0x00000000
31000000: global: f29=0x00000000
31000000: global: f30=0x00000000
31000000: global: f31=0x00000000
31000000: system.cpu.memory: Log4GUI: memory: 31000000: 0: 100ec: addi x7, x0, 0
31000000: system.cpu.execute: Log4GUI: execute: 31000000: 0: 100f0: add x13, x1, x6: 0
31000000: system.cpu.decode: Log4GUI: decode: 31000000: 0: 100f4: lb x3, 0(x13)
31000000: system.cpu.fetch1: Log4GUI: fetch1: 31000000: 0: 100f8: <assembly>
32000000: system.cpu.writeback: Log4GUI: writeback: 32000000: 0: 100ec: addi x7, x0, 0
32000000: system.cpu.writeback: REGISTERS
32000000: global: x0=0x00000000
32000000: global: x1=0x000111c0
32000000: global: x2=0x000111ca
32000000: global: x3=0x00000000
32000000: global: x4=0x00000000
32000000: global: x5=0x0000000a
32000000: global: x6=0x00000000
32000000: global: x7=0x00000000
32000000: global: x8=0x00000001
32000000: global: x9=0x00000000
32000000: global: x10=0x00000000
32000000: global: x11=0x000111d4
32000000: global: x12=0x00000000
32000000: global: x13=0x00000000
32000000: global: x14=0x000111df
32000000: global: x15=0x000111e0
32000000: global: x16=0x000111e1
32000000: global: x17=0x00000000
32000000: global: x18=0x00000000
32000000: global: x19=0x00000000
32000000: global: x20=0x00000000
32000000: global: x21=0x00000000
32000000: global: x22=0x00000000
32000000: global: x23=0x00000000
32000000: global: x24=0x00000000
32000000: global: x25=0x00000000
32000000: global: x26=0x00000000
32000000: global: x27=0x00000000
32000000: global: x28=0x00000000
32000000: global: x29=0x00000000
32000000: global: x30=0x00000000
32000000: global: x31=0x00000000
32000000: global: f0=0x00000000
32000000: global: f1=0x00000000
32000000: global: f2=0x00000000
32000000: global: f3=0x00000000
32000000: global: f4=0x00000000
32000000: global: f5=0x00000000
32000000: global: f6=0x00000000
32000000: global: f7=0x00000000
32000000: global: f8=0x00000000
32000000: global: f9=0x00000000
32000000: global: f10=0x00000000
32000000: global: f11=0x00000000
32000000: global: f12=0x00000000
32000000: global: f13=0x00000000
32000000: global: f14=0x00000000
32000000: global: f15=0x00000000
32000000: global: f16=0x00000000
32000000: global: f17=0x00000000
32000000: global: f18=0x00000000
32000000: global: f19=0x00000000
32000000: global: f20=0x00000000
32000000: global: f21=0x00000000
32000000: global: f22=0x00000000
32000000: global: f23=0x00000000
32000000: global: f24=0x00000000
32000000: global: f25=0x00000000
32000000: global: f26=0x00000000
32000000: global: f27=0x00000000
32000000: global: f28=0x00000000
32000000: global: f29=0x00000000
32000000: global: f30=0x00000000
32000000: global: f31=0x00000000
32000000: system.cpu.memory: Log4GUI: memory: 32000000: 0: 100f0: add x13, x1, x6
32000000: system.cpu.execute: Log4GUI: execute: 32000000: 0: 100f4: lb x3, 0(x13): 0
32000000: system.cpu.decode: Log4GUI: decode: 32000000: 0: 100f8: addi x6, x6, 1
32000000: system.cpu.fetch1: Log4GUI: fetch1: 32000000: 0: 100fc: <assembly>
33000000: system.cpu.writeback: Log4GUI: writeback: 33000000: 0: 100f0: add x13, x1, x6
33000000: system.cpu.writeback: REGISTERS
33000000: global: x0=0x00000000
33000000: global: x1=0x000111c0
33000000: global: x2=0x000111ca
33000000: global: x3=0x00000000
33000000: global: x4=0x00000000
33000000: global: x5=0x0000000a
33000000: global: x6=0x00000000
33000000: global: x7=0x00000000
33000000: global: x8=0x00000001
33000000: global: x9=0x00000000
33000000: global: x10=0x00000000
33000000: global: x11=0x000111d4
33000000: global: x12=0x00000000
33000000: global: x13=0x000111c0
33000000: global: x14=0x000111df
33000000: global: x15=0x000111e0
33000000: global: x16=0x000111e1
33000000: global: x17=0x00000000
33000000: global: x18=0x00000000
33000000: global: x19=0x00000000
33000000: global: x20=0x00000000
33000000: global: x21=0x00000000
33000000: global: x22=0x00000000
33000000: global: x23=0x00000000
33000000: global: x24=0x00000000
33000000: global: x25=0x00000000
33000000: global: x26=0x00000000
33000000: global: x27=0x00000000
33000000: global: x28=0x00000000
33000000: global: x29=0x00000000
33000000: global: x30=0x00000000
33000000: global: x31=0x00000000
33000000: global: f0=0x00000000
33000000: global: f1=0x00000000
33000000: global: f2=0x00000000
33000000: global: f3=0x00000000
33000000: global: f4=0x00000000
33000000: global: f5=0x00000000
33000000: global: f6=0x00000000
33000000: global: f7=0x00000000
33000000: global: f8=0x00000000
33000000: global: f9=0x00000000
33000000: global: f10=0x00000000
33000000: global: f11=0x00000000
33000000: global: f12=0x00000000
33000000: global: f13=0x00000000
33000000: global: f14=0x00000000
33000000: global: f15=0x00000000
33000000: global: f16=0x00000000
33000000: global: f17=0x00000000
33000000: global: f18=0x00000000
33000000: global: f19=0x00000000
33000000: global: f20=0x00000000
33000000: global: f21=0x00000000
33000000: global: f22=0x00000000
33000000: global: f23=0x00000000
33000000: global: f24=0x00000000
33000000: global: f25=0x00000000
33000000: global: f26=0x00000000
33000000: global: f27=0x00000000
33000000: global: f28=0x00000000
33000000: global: f29=0x00000000
33000000: global: f30=0x00000000
33000000: global: f31=0x00000000
33000000: system.cpu.memory: Log4GUI: memory: 33000000: 0: 100f4: lb x3, 0(x13)
33000000: system.cpu.execute: Log4GUI: execute: 33000000: 0: 100f8: addi x6, x6, 1: 0
33000000: system.cpu.decode: Log4GUI: decode: 33000000: 0: 100fc: beq x5, x7, -20
33000000: system.cpu.fetch1: Log4GUI: fetch1: 33000000: 0: 10100: <assembly>
34000000: system.cpu.writeback: Log4GUI: writeback: 34000000: 0: 100f4: lb x3, 0(x13)
34000000: system.cpu.writeback: REGISTERS
34000000: global: x0=0x00000000
34000000: global: x1=0x000111c0
34000000: global: x2=0x000111ca
34000000: global: x3=0x00000002
34000000: global: x4=0x00000000
34000000: global: x5=0x0000000a
34000000: global: x6=0x00000000
34000000: global: x7=0x00000000
34000000: global: x8=0x00000001
34000000: global: x9=0x00000000
34000000: global: x10=0x00000000
34000000: global: x11=0x000111d4
34000000: global: x12=0x00000000
34000000: global: x13=0x000111c0
34000000: global: x14=0x000111df
34000000: global: x15=0x000111e0
34000000: global: x16=0x000111e1
34000000: global: x17=0x00000000
34000000: global: x18=0x00000000
34000000: global: x19=0x00000000
34000000: global: x20=0x00000000
34000000: global: x21=0x00000000
34000000: global: x22=0x00000000
34000000: global: x23=0x00000000
34000000: global: x24=0x00000000
34000000: global: x25=0x00000000
34000000: global: x26=0x00000000
34000000: global: x27=0x00000000
34000000: global: x28=0x00000000
34000000: global: x29=0x00000000
34000000: global: x30=0x00000000
34000000: global: x31=0x00000000
34000000: global: f0=0x00000000
34000000: global: f1=0x00000000
34000000: global: f2=0x00000000
34000000: global: f3=0x00000000
34000000: global: f4=0x00000000
34000000: global: f5=0x00000000
34000000: global: f6=0x00000000
34000000: global: f7=0x00000000
34000000: global: f8=0x00000000
34000000: global: f9=0x00000000
34000000: global: f10=0x00000000
34000000: global: f11=0x00000000
34000000: global: f12=0x00000000
34000000: global: f13=0x00000000
34000000: global: f14=0x00000000
34000000: global: f15=0x00000000
34000000: global: f16=0x00000000
34000000: global: f17=0x00000000
34000000: global: f18=0x00000000
34000000: global: f19=0x00000000
34000000: global: f20=0x00000000
34000000: global: f21=0x00000000
34000000: global: f22=0x00000000
34000000: global: f23=0x00000000
34000000: global: f24=0x00000000
34000000: global: f25=0x00000000
34000000: global: f26=0x00000000
34000000: global: f27=0x00000000
34000000: global: f28=0x00000000
34000000: global: f29=0x00000000
34000000: global: f30=0x00000000
34000000: global: f31=0x00000000
34000000: system.cpu.memory: Log4GUI: memory: 34000000: 0: 100f8: addi x6, x6, 1
34000000: system.cpu.execute: Log4GUI: execute: 34000000: 0: 100fc: beq x5, x7, -20: 0
34000000: system.cpu.decode: Log4GUI: decode: 34000000: 0: 10100: add x13, x2, x7
34000000: system.cpu.fetch1: Log4GUI: fetch1: 34000000: 0: 10104: <assembly>
35000000: system.cpu.writeback: Log4GUI: writeback: 35000000: 0: 100f8: addi x6, x6, 1
35000000: system.cpu.writeback: REGISTERS
35000000: global: x0=0x00000000
35000000: global: x1=0x000111c0
35000000: global: x2=0x000111ca
35000000: global: x3=0x00000002
35000000: global: x4=0x00000000
35000000: global: x5=0x0000000a
35000000: global: x6=0x00000001
35000000: global: x7=0x00000000
35000000: global: x8=0x00000001
35000000: global: x9=0x00000000
35000000: global: x10=0x00000000
35000000: global: x11=0x000111d4
35000000: global: x12=0x00000000
35000000: global: x13=0x000111c0
35000000: global: x14=0x000111df
35000000: global: x15=0x000111e0
35000000: global: x16=0x000111e1
35000000: global: x17=0x00000000
35000000: global: x18=0x00000000
35000000: global: x19=0x00000000
35000000: global: x20=0x00000000
35000000: global: x21=0x00000000
35000000: global: x22=0x00000000
35000000: global: x23=0x00000000
35000000: global: x24=0x00000000
35000000: global: x25=0x00000000
35000000: global: x26=0x00000000
35000000: global: x27=0x00000000
35000000: global: x28=0x00000000
35000000: global: x29=0x00000000
35000000: global: x30=0x00000000
35000000: global: x31=0x00000000
35000000: global: f0=0x00000000
35000000: global: f1=0x00000000
35000000: global: f2=0x00000000
35000000: global: f3=0x00000000
35000000: global: f4=0x00000000
35000000: global: f5=0x00000000
35000000: global: f6=0x00000000
35000000: global: f7=0x00000000
35000000: global: f8=0x00000000
35000000: global: f9=0x00000000
35000000: global: f10=0x00000000
35000000: global: f11=0x00000000
35000000: global: f12=0x00000000
35000000: global: f13=0x00000000
35000000: global: f14=0x00000000
35000000: global: f15=0x00000000
35000000: global: f16=0x00000000
35000000: global: f17=0x00000000
35000000: global: f18=0x00000000
35000000: global: f19=0x00000000
35000000: global: f20=0x00000000
35000000: global: f21=0x00000000
35000000: global: f22=0x00000000
35000000: global: f23=0x00000000
35000000: global: f24=0x00000000
35000000: global: f25=0x00000000
35000000: global: f26=0x00000000
35000000: global: f27=0x00000000
35000000: global: f28=0x00000000
35000000: global: f29=0x00000000
35000000: global: f30=0x00000000
35000000: global: f31=0x00000000
35000000: system.cpu.memory: Log4GUI: memory: 35000000: 0: 100fc: beq x5, x7, -20
35000000: system.cpu.execute: Log4GUI: execute: 35000000: 0: 10100: add x13, x2, x7: 0
35000000: system.cpu.decode: Log4GUI: decode: 35000000: 0: 10104: lb x4, 0(x13)
35000000: system.cpu.fetch1: Log4GUI: fetch1: 35000000: 0: 10108: <assembly>
36000000: system.cpu.writeback: Log4GUI: writeback: 36000000: 0: 100fc: beq x5, x7, -20
36000000: system.cpu.writeback: REGISTERS
36000000: global: x0=0x00000000
36000000: global: x1=0x000111c0
36000000: global: x2=0x000111ca
36000000: global: x3=0x00000002
36000000: global: x4=0x00000000
36000000: global: x5=0x0000000a
36000000: global: x6=0x00000001
36000000: global: x7=0x00000000
36000000: global: x8=0x00000001
36000000: global: x9=0x00000000
36000000: global: x10=0x00000000
36000000: global: x11=0x000111d4
36000000: global: x12=0x00000000
36000000: global: x13=0x000111c0
36000000: global: x14=0x000111df
36000000: global: x15=0x000111e0
36000000: global: x16=0x000111e1
36000000: global: x17=0x00000000
36000000: global: x18=0x00000000
36000000: global: x19=0x00000000
36000000: global: x20=0x00000000
36000000: global: x21=0x00000000
36000000: global: x22=0x00000000
36000000: global: x23=0x00000000
36000000: global: x24=0x00000000
36000000: global: x25=0x00000000
36000000: global: x26=0x00000000
36000000: global: x27=0x00000000
36000000: global: x28=0x00000000
36000000: global: x29=0x00000000
36000000: global: x30=0x00000000
36000000: global: x31=0x00000000
36000000: global: f0=0x00000000
36000000: global: f1=0x00000000
36000000: global: f2=0x00000000
36000000: global: f3=0x00000000
36000000: global: f4=0x00000000
36000000: global: f5=0x00000000
36000000: global: f6=0x00000000
36000000: global: f7=0x00000000
36000000: global: f8=0x00000000
36000000: global: f9=0x00000000
36000000: global: f10=0x00000000
36000000: global: f11=0x00000000
36000000: global: f12=0x00000000
36000000: global: f13=0x00000000
36000000: global: f14=0x00000000
36000000: global: f15=0x00000000
36000000: global: f16=0x00000000
36000000: global: f17=0x00000000
36000000: global: f18=0x00000000
36000000: global: f19=0x00000000
36000000: global: f20=0x00000000
36000000: global: f21=0x00000000
36000000: global: f22=0x00000000
36000000: global: f23=0x00000000
36000000: global: f24=0x00000000
36000000: global: f25=0x00000000
36000000: global: f26=0x00000000
36000000: global: f27=0x00000000
36000000: global: f28=0x00000000
36000000: global: f29=0x00000000
36000000: global: f30=0x00000000
36000000: global: f31=0x00000000
36000000: system.cpu.memory: Log4GUI: memory: 36000000: 0: 10100: add x13, x2, x7
36000000: system.cpu.execute: Log4GUI: execute: 36000000: 0: 10104: lb x4, 0(x13): 0
36000000: system.cpu.decode: Log4GUI: decode: 36000000: 0: 10108: addi x7, x7, 1
36000000: system.cpu.fetch1: Log4GUI: fetch1: 36000000: 0: 1010c: <assembly>
37000000: system.cpu.writeback: Log4GUI: writeback: 37000000: 0: 10100: add x13, x2, x7
37000000: system.cpu.writeback: REGISTERS
37000000: global: x0=0x00000000
37000000: global: x1=0x000111c0
37000000: global: x2=0x000111ca
37000000: global: x3=0x00000002
37000000: global: x4=0x00000000
37000000: global: x5=0x0000000a
37000000: global: x6=0x00000001
37000000: global: x7=0x00000000
37000000: global: x8=0x00000001
37000000: global: x9=0x00000000
37000000: global: x10=0x00000000
37000000: global: x11=0x000111d4
37000000: global: x12=0x00000000
37000000: global: x13=0x000111ca
37000000: global: x14=0x000111df
37000000: global: x15=0x000111e0
37000000: global: x16=0x000111e1
37000000: global: x17=0x00000000
37000000: global: x18=0x00000000
37000000: global: x19=0x00000000
37000000: global: x20=0x00000000
37000000: global: x21=0x00000000
37000000: global: x22=0x00000000
37000000: global: x23=0x00000000
37000000: global: x24=0x00000000
37000000: global: x25=0x00000000
37000000: global: x26=0x00000000
37000000: global: x27=0x00000000
37000000: global: x28=0x00000000
37000000: global: x29=0x00000000
37000000: global: x30=0x00000000
37000000: global: x31=0x00000000
37000000: global: f0=0x00000000
37000000: global: f1=0x00000000
37000000: global: f2=0x00000000
37000000: global: f3=0x00000000
37000000: global: f4=0x00000000
37000000: global: f5=0x00000000
37000000: global: f6=0x00000000
37000000: global: f7=0x00000000
37000000: global: f8=0x00000000
37000000: global: f9=0x00000000
37000000: global: f10=0x00000000
37000000: global: f11=0x00000000
37000000: global: f12=0x00000000
37000000: global: f13=0x00000000
37000000: global: f14=0x00000000
37000000: global: f15=0x00000000
37000000: global: f16=0x00000000
37000000: global: f17=0x00000000
37000000: global: f18=0x00000000
37000000: global: f19=0x00000000
37000000: global: f20=0x00000000
37000000: global: f21=0x00000000
37000000: global: f22=0x00000000
37000000: global: f23=0x00000000
37000000: global: f24=0x00000000
37000000: global: f25=0x00000000
37000000: global: f26=0x00000000
37000000: global: f27=0x00000000
37000000: global: f28=0x00000000
37000000: global: f29=0x00000000
37000000: global: f30=0x00000000
37000000: global: f31=0x00000000
37000000: system.cpu.memory: Log4GUI: memory: 37000000: 0: 10104: lb x4, 0(x13)
37000000: system.cpu.execute: Log4GUI: execute: 37000000: 0: 10108: addi x7, x7, 1: 0
37000000: system.cpu.decode: Log4GUI: decode: 37000000: 0: 1010c: bne x3, x4, -16
37000000: system.cpu.fetch1: Log4GUI: fetch1: 37000000: 0: 10110: <assembly>
38000000: system.cpu.writeback: Log4GUI: writeback: 38000000: 0: 10104: lb x4, 0(x13)
38000000: system.cpu.writeback: REGISTERS
38000000: global: x0=0x00000000
38000000: global: x1=0x000111c0
38000000: global: x2=0x000111ca
38000000: global: x3=0x00000002
38000000: global: x4=0x00000004
38000000: global: x5=0x0000000a
38000000: global: x6=0x00000001
38000000: global: x7=0x00000000
38000000: global: x8=0x00000001
38000000: global: x9=0x00000000
38000000: global: x10=0x00000000
38000000: global: x11=0x000111d4
38000000: global: x12=0x00000000
38000000: global: x13=0x000111ca
38000000: global: x14=0x000111df
38000000: global: x15=0x000111e0
38000000: global: x16=0x000111e1
38000000: global: x17=0x00000000
38000000: global: x18=0x00000000
38000000: global: x19=0x00000000
38000000: global: x20=0x00000000
38000000: global: x21=0x00000000
38000000: global: x22=0x00000000
38000000: global: x23=0x00000000
38000000: global: x24=0x00000000
38000000: global: x25=0x00000000
38000000: global: x26=0x00000000
38000000: global: x27=0x00000000
38000000: global: x28=0x00000000
38000000: global: x29=0x00000000
38000000: global: x30=0x00000000
38000000: global: x31=0x00000000
38000000: global: f0=0x00000000
38000000: global: f1=0x00000000
38000000: global: f2=0x00000000
38000000: global: f3=0x00000000
38000000: global: f4=0x00000000
38000000: global: f5=0x00000000
38000000: global: f6=0x00000000
38000000: global: f7=0x00000000
38000000: global: f8=0x00000000
38000000: global: f9=0x00000000
38000000: global: f10=0x00000000
38000000: global: f11=0x00000000
38000000: global: f12=0x00000000
38000000: global: f13=0x00000000
38000000: global: f14=0x00000000
38000000: global: f15=0x00000000
38000000: global: f16=0x00000000
38000000: global: f17=0x00000000
38000000: global: f18=0x00000000
38000000: global: f19=0x00000000
38000000: global: f20=0x00000000
38000000: global: f21=0x00000000
38000000: global: f22=0x00000000
38000000: global: f23=0x00000000
38000000: global: f24=0x00000000
38000000: global: f25=0x00000000
38000000: global: f26=0x00000000
38000000: global: f27=0x00000000
38000000: global: f28=0x00000000
38000000: global: f29=0x00000000
38000000: global: f30=0x00000000
38000000: global: f31=0x00000000
38000000: system.cpu.memory: Log4GUI: memory: 38000000: 0: 10108: addi x7, x7, 1
38000000: system.cpu.execute: Log4GUI: execute: 38000000: 0: 1010c: bne x3, x4, -16: 0
38000000: system.cpu.fetch1: Log4GUI: fetch1: 38000000: 0: 100fc: <assembly>
39000000: system.cpu.writeback: Log4GUI: writeback: 39000000: 0: 10108: addi x7, x7, 1
39000000: system.cpu.writeback: REGISTERS
39000000: global: x0=0x00000000
39000000: global: x1=0x000111c0
39000000: global: x2=0x000111ca
39000000: global: x3=0x00000002
39000000: global: x4=0x00000004
39000000: global: x5=0x0000000a
39000000: global: x6=0x00000001
39000000: global: x7=0x00000001
39000000: global: x8=0x00000001
39000000: global: x9=0x00000000
39000000: global: x10=0x00000000
39000000: global: x11=0x000111d4
39000000: global: x12=0x00000000
39000000: global: x13=0x000111ca
39000000: global: x14=0x000111df
39000000: global: x15=0x000111e0
39000000: global: x16=0x000111e1
39000000: global: x17=0x00000000
39000000: global: x18=0x00000000
39000000: global: x19=0x00000000
39000000: global: x20=0x00000000
39000000: global: x21=0x00000000
39000000: global: x22=0x00000000
39000000: global: x23=0x00000000
39000000: global: x24=0x00000000
39000000: global: x25=0x00000000
39000000: global: x26=0x00000000
39000000: global: x27=0x00000000
39000000: global: x28=0x00000000
39000000: global: x29=0x00000000
39000000: global: x30=0x00000000
39000000: global: x31=0x00000000
39000000: global: f0=0x00000000
39000000: global: f1=0x00000000
39000000: global: f2=0x00000000
39000000: global: f3=0x00000000
39000000: global: f4=0x00000000
39000000: global: f5=0x00000000
39000000: global: f6=0x00000000
39000000: global: f7=0x00000000
39000000: global: f8=0x00000000
39000000: global: f9=0x00000000
39000000: global: f10=0x00000000
39000000: global: f11=0x00000000
39000000: global: f12=0x00000000
39000000: global: f13=0x00000000
39000000: global: f14=0x00000000
39000000: global: f15=0x00000000
39000000: global: f16=0x00000000
39000000: global: f17=0x00000000
39000000: global: f18=0x00000000
39000000: global: f19=0x00000000
39000000: global: f20=0x00000000
39000000: global: f21=0x00000000
39000000: global: f22=0x00000000
39000000: global: f23=0x00000000
39000000: global: f24=0x00000000
39000000: global: f25=0x00000000
39000000: global: f26=0x00000000
39000000: global: f27=0x00000000
39000000: global: f28=0x00000000
39000000: global: f29=0x00000000
39000000: global: f30=0x00000000
39000000: global: f31=0x00000000
39000000: system.cpu.memory: Log4GUI: memory: 39000000: 0: 1010c: bne x3, x4, -16
39000000: system.cpu.decode: Log4GUI: decode: 39000000: 0: 100fc: beq x5, x7, -20
39000000: system.cpu.fetch1: Log4GUI: fetch1: 39000000: 0: 10100: <assembly>
40000000: system.cpu.writeback: Log4GUI: writeback: 40000000: 0: 1010c: bne x3, x4, -16
40000000: system.cpu.writeback: REGISTERS
40000000: global: x0=0x00000000
40000000: global: x1=0x000111c0
40000000: global: x2=0x000111ca
40000000: global: x3=0x00000002
40000000: global: x4=0x00000004
40000000: global: x5=0x0000000a
40000000: global: x6=0x00000001
40000000: global: x7=0x00000001
40000000: global: x8=0x00000001
40000000: global: x9=0x00000000
40000000: global: x10=0x00000000
40000000: global: x11=0x000111d4
40000000: global: x12=0x00000000
40000000: global: x13=0x000111ca
40000000: global: x14=0x000111df
40000000: global: x15=0x000111e0
40000000: global: x16=0x000111e1
40000000: global: x17=0x00000000
40000000: global: x18=0x00000000
40000000: global: x19=0x00000000
40000000: global: x20=0x00000000
40000000: global: x21=0x00000000
40000000: global: x22=0x00000000
40000000: global: x23=0x00000000
40000000: global: x24=0x00000000
40000000: global: x25=0x00000000
40000000: global: x26=0x00000000
40000000: global: x27=0x00000000
40000000: global: x28=0x00000000
40000000: global: x29=0x00000000
40000000: global: x30=0x00000000
40000000: global: x31=0x00000000
40000000: global: f0=0x00000000
40000000: global: f1=0x00000000
40000000: global: f2=0x00000000
40000000: global: f3=0x00000000
40000000: global: f4=0x00000000
40000000: global: f5=0x00000000
40000000: global: f6=0x00000000
40000000: global: f7=0x00000000
40000000: global: f8=0x00000000
40000000: global: f9=0x00000000
40000000: global: f10=0x00000000
40000000: global: f11=0x00000000
40000000: global: f12=0x00000000
40000000: global: f13=0x00000000
40000000: global: f14=0x00000000
40000000: global: f15=0x00000000
40000000: global: f16=0x00000000
40000000: global: f17=0x00000000
40000000: global: f18=0x00000000
40000000: global: f19=0x00000000
40000000: global: f20=0x00000000
[...]
745000000: global: f3=0x00000000
745000000: global: f4=0x00000000
745000000: global: f5=0x00000000
745000000: global: f6=0x00000000
745000000: global: f7=0x00000000
745000000: global: f8=0x00000000
745000000: global: f9=0x00000000
745000000: global: f10=0x00000000
745000000: global: f11=0x00000000
745000000: global: f12=0x00000000
745000000: global: f13=0x00000000
745000000: global: f14=0x00000000
745000000: global: f15=0x00000000
745000000: global: f16=0x00000000
745000000: global: f17=0x00000000
745000000: global: f18=0x00000000
745000000: global: f19=0x00000000
745000000: global: f20=0x00000000
745000000: global: f21=0x00000000
745000000: global: f22=0x00000000
745000000: global: f23=0x00000000
745000000: global: f24=0x00000000
745000000: global: f25=0x00000000
745000000: global: f26=0x00000000
745000000: global: f27=0x00000000
745000000: global: f28=0x00000000
745000000: global: f29=0x00000000
745000000: global: f30=0x00000000
745000000: global: f31=0x00000000
745000000: system.cpu.memory: Log4GUI: memory: 745000000: 0: 10184: add x13, x11, x6
745000000: system.cpu.execute: Log4GUI: execute: 745000000: 0: 10188: lb x20, 0(x13): 0
745000000: system.cpu.decode: Log4GUI: decode: 745000000: 0: 1018c: add x13, x11, x7
745000000: system.cpu.fetch1: Log4GUI: fetch1: 745000000: 0: 10190: <assembly>
746000000: system.cpu.writeback: Log4GUI: writeback: 746000000: 0: 10184: add x13, x11, x6
746000000: system.cpu.writeback: REGISTERS
746000000: global: x0=0x00000000
746000000: global: x1=0x000111c0
746000000: global: x2=0x000111ca
746000000: global: x3=0x00000001
746000000: global: x4=0x00000007
746000000: global: x5=0x0000000a
746000000: global: x6=0x00000001
746000000: global: x7=0x00000002
746000000: global: x8=0x00000000
746000000: global: x9=0x00000000
746000000: global: x10=0x00000000
746000000: global: x11=0x000111d4
746000000: global: x12=0x00000004
746000000: global: x13=0x000111d5
746000000: global: x14=0x000111df
746000000: global: x15=0x000111e0
746000000: global: x16=0x000111e1
746000000: global: x17=0x00000000
746000000: global: x18=0x00000000
746000000: global: x19=0x00000000
746000000: global: x20=0x00000002
746000000: global: x21=0x00000009
746000000: global: x22=0x00000000
746000000: global: x23=0x00000000
746000000: global: x24=0x00000000
746000000: global: x25=0x00000000
746000000: global: x26=0x00000000
746000000: global: x27=0x00000000
746000000: global: x28=0x00000000
746000000: global: x29=0x00000000
746000000: global: x30=0x00000000
746000000: global: x31=0x00000000
746000000: global: f0=0x00000000
746000000: global: f1=0x00000000
746000000: global: f2=0x00000000
746000000: global: f3=0x00000000
746000000: global: f4=0x00000000
746000000: global: f5=0x00000000
746000000: global: f6=0x00000000
746000000: global: f7=0x00000000
746000000: global: f8=0x00000000
746000000: global: f9=0x00000000
746000000: global: f10=0x00000000
746000000: global: f11=0x00000000
746000000: global: f12=0x00000000
746000000: global: f13=0x00000000
746000000: global: f14=0x00000000
746000000: global: f15=0x00000000
746000000: global: f16=0x00000000
746000000: global: f17=0x00000000
746000000: global: f18=0x00000000
746000000: global: f19=0x00000000
746000000: global: f20=0x00000000
746000000: global: f21=0x00000000
746000000: global: f22=0x00000000
746000000: global: f23=0x00000000
746000000: global: f24=0x00000000
746000000: global: f25=0x00000000
746000000: global: f26=0x00000000
746000000: global: f27=0x00000000
746000000: global: f28=0x00000000
746000000: global: f29=0x00000000
746000000: global: f30=0x00000000
746000000: global: f31=0x00000000
746000000: system.cpu.memory: Log4GUI: memory: 746000000: 0: 10188: lb x20, 0(x13)
746000000: system.cpu.execute: Log4GUI: execute: 746000000: 0: 1018c: add x13, x11, x7: 0
746000000: system.cpu.decode: Log4GUI: decode: 746000000: 0: 10190: lb x21, 0(x13)
746000000: system.cpu.fetch1: Log4GUI: fetch1: 746000000: 0: 10194: <assembly>
747000000: system.cpu.writeback: Log4GUI: writeback: 747000000: 0: 10188: lb x20, 0(x13)
747000000: system.cpu.writeback: REGISTERS
747000000: global: x0=0x00000000
747000000: global: x1=0x000111c0
747000000: global: x2=0x000111ca
747000000: global: x3=0x00000001
747000000: global: x4=0x00000007
747000000: global: x5=0x0000000a
747000000: global: x6=0x00000001
747000000: global: x7=0x00000002
747000000: global: x8=0x00000000
747000000: global: x9=0x00000000
747000000: global: x10=0x00000000
747000000: global: x11=0x000111d4
747000000: global: x12=0x00000004
747000000: global: x13=0x000111d5
747000000: global: x14=0x000111df
747000000: global: x15=0x000111e0
747000000: global: x16=0x000111e1
747000000: global: x17=0x00000000
747000000: global: x18=0x00000000
747000000: global: x19=0x00000000
747000000: global: x20=0x00000009
747000000: global: x21=0x00000009
747000000: global: x22=0x00000000
747000000: global: x23=0x00000000
747000000: global: x24=0x00000000
747000000: global: x25=0x00000000
747000000: global: x26=0x00000000
747000000: global: x27=0x00000000
747000000: global: x28=0x00000000
747000000: global: x29=0x00000000
747000000: global: x30=0x00000000
747000000: global: x31=0x00000000
747000000: global: f0=0x00000000
747000000: global: f1=0x00000000
747000000: global: f2=0x00000000
747000000: global: f3=0x00000000
747000000: global: f4=0x00000000
747000000: global: f5=0x00000000
747000000: global: f6=0x00000000
747000000: global: f7=0x00000000
747000000: global: f8=0x00000000
747000000: global: f9=0x00000000
747000000: global: f10=0x00000000
747000000: global: f11=0x00000000
747000000: global: f12=0x00000000
747000000: global: f13=0x00000000
747000000: global: f14=0x00000000
747000000: global: f15=0x00000000
747000000: global: f16=0x00000000
747000000: global: f17=0x00000000
747000000: global: f18=0x00000000
747000000: global: f19=0x00000000
747000000: global: f20=0x00000000
747000000: global: f21=0x00000000
747000000: global: f22=0x00000000
747000000: global: f23=0x00000000
747000000: global: f24=0x00000000
747000000: global: f25=0x00000000
747000000: global: f26=0x00000000
747000000: global: f27=0x00000000
747000000: global: f28=0x00000000
747000000: global: f29=0x00000000
747000000: global: f30=0x00000000
747000000: global: f31=0x00000000
747000000: system.cpu.memory: Log4GUI: memory: 747000000: 0: 1018c: add x13, x11, x7
747000000: system.cpu.execute: Log4GUI: execute: 747000000: 0: 10190: lb x21, 0(x13): 0
747000000: system.cpu.decode: Log4GUI: decode: 747000000: 0: 10194: blt x20, x21, -28
747000000: system.cpu.fetch1: Log4GUI: fetch1: 747000000: 0: 10198: <assembly>
748000000: system.cpu.writeback: Log4GUI: writeback: 748000000: 0: 1018c: add x13, x11, x7
748000000: system.cpu.writeback: REGISTERS
748000000: global: x0=0x00000000
748000000: global: x1=0x000111c0
748000000: global: x2=0x000111ca
748000000: global: x3=0x00000001
748000000: global: x4=0x00000007
748000000: global: x5=0x0000000a
748000000: global: x6=0x00000001
748000000: global: x7=0x00000002
748000000: global: x8=0x00000000
748000000: global: x9=0x00000000
748000000: global: x10=0x00000000
748000000: global: x11=0x000111d4
748000000: global: x12=0x00000004
748000000: global: x13=0x000111d6
748000000: global: x14=0x000111df
748000000: global: x15=0x000111e0
748000000: global: x16=0x000111e1
748000000: global: x17=0x00000000
748000000: global: x18=0x00000000
748000000: global: x19=0x00000000
748000000: global: x20=0x00000009
748000000: global: x21=0x00000009
748000000: global: x22=0x00000000
748000000: global: x23=0x00000000
748000000: global: x24=0x00000000
748000000: global: x25=0x00000000
748000000: global: x26=0x00000000
748000000: global: x27=0x00000000
748000000: global: x28=0x00000000
748000000: global: x29=0x00000000
748000000: global: x30=0x00000000
748000000: global: x31=0x00000000
748000000: global: f0=0x00000000
748000000: global: f1=0x00000000
748000000: global: f2=0x00000000
748000000: global: f3=0x00000000
748000000: global: f4=0x00000000
748000000: global: f5=0x00000000
748000000: global: f6=0x00000000
748000000: global: f7=0x00000000
748000000: global: f8=0x00000000
748000000: global: f9=0x00000000
748000000: global: f10=0x00000000
748000000: global: f11=0x00000000
748000000: global: f12=0x00000000
748000000: global: f13=0x00000000
748000000: global: f14=0x00000000
748000000: global: f15=0x00000000
748000000: global: f16=0x00000000
748000000: global: f17=0x00000000
748000000: global: f18=0x00000000
748000000: global: f19=0x00000000
748000000: global: f20=0x00000000
748000000: global: f21=0x00000000
748000000: global: f22=0x00000000
748000000: global: f23=0x00000000
748000000: global: f24=0x00000000
748000000: global: f25=0x00000000
748000000: global: f26=0x00000000
748000000: global: f27=0x00000000
748000000: global: f28=0x00000000
748000000: global: f29=0x00000000
748000000: global: f30=0x00000000
748000000: global: f31=0x00000000
748000000: system.cpu.memory: Log4GUI: memory: 748000000: 0: 10190: lb x21, 0(x13)
748000000: system.cpu.decode: Log4GUI: decode: 748000000: 1: 10194: blt x20, x21, -28
748000000: system.cpu.fetch1: Log4GUI: fetch1: 748000000: 1: 10198: <assembly>
749000000: system.cpu.writeback: Log4GUI: writeback: 749000000: 0: 10190: lb x21, 0(x13)
749000000: system.cpu.writeback: REGISTERS
749000000: global: x0=0x00000000
749000000: global: x1=0x000111c0
749000000: global: x2=0x000111ca
749000000: global: x3=0x00000001
749000000: global: x4=0x00000007
749000000: global: x5=0x0000000a
749000000: global: x6=0x00000001
749000000: global: x7=0x00000002
749000000: global: x8=0x00000000
749000000: global: x9=0x00000000
749000000: global: x10=0x00000000
749000000: global: x11=0x000111d4
749000000: global: x12=0x00000004
749000000: global: x13=0x000111d6
749000000: global: x14=0x000111df
749000000: global: x15=0x000111e0
749000000: global: x16=0x000111e1
749000000: global: x17=0x00000000
749000000: global: x18=0x00000000
749000000: global: x19=0x00000000
749000000: global: x20=0x00000009
749000000: global: x21=0x00000009
749000000: global: x22=0x00000000
749000000: global: x23=0x00000000
749000000: global: x24=0x00000000
749000000: global: x25=0x00000000
749000000: global: x26=0x00000000
749000000: global: x27=0x00000000
749000000: global: x28=0x00000000
749000000: global: x29=0x00000000
749000000: global: x30=0x00000000
749000000: global: x31=0x00000000
749000000: global: f0=0x00000000
749000000: global: f1=0x00000000
749000000: global: f2=0x00000000
749000000: global: f3=0x00000000
749000000: global: f4=0x00000000
749000000: global: f5=0x00000000
749000000: global: f6=0x00000000
749000000: global: f7=0x00000000
749000000: global: f8=0x00000000
749000000: global: f9=0x00000000
749000000: global: f10=0x00000000
749000000: global: f11=0x00000000
749000000: global: f12=0x00000000
749000000: global: f13=0x00000000
749000000: global: f14=0x00000000
749000000: global: f15=0x00000000
749000000: global: f16=0x00000000
749000000: global: f17=0x00000000
749000000: global: f18=0x00000000
749000000: global: f19=0x00000000
749000000: global: f20=0x00000000
749000000: global: f21=0x00000000
749000000: global: f22=0x00000000
749000000: global: f23=0x00000000
749000000: global: f24=0x00000000
749000000: global: f25=0x00000000
749000000: global: f26=0x00000000
749000000: global: f27=0x00000000
749000000: global: f28=0x00000000
749000000: global: f29=0x00000000
749000000: global: f30=0x00000000
749000000: global: f31=0x00000000
749000000: system.cpu.execute: Log4GUI: execute: 749000000: 0: 10194: blt x20, x21, -28: 0
749000000: system.cpu.decode: Log4GUI: decode: 749000000: 0: 10198: jal x0, 28
749000000: system.cpu.fetch1: Log4GUI: fetch1: 749000000: 0: 1019c: <assembly>
750000000: system.cpu.memory: Log4GUI: memory: 750000000: 0: 10194: blt x20, x21, -28
750000000: system.cpu.execute: Log4GUI: execute: 750000000: 0: 10198: jal x0, 28: 0
750000000: system.cpu.fetch1: Log4GUI: fetch1: 750000000: 0: 101b4: <assembly>
751000000: system.cpu.writeback: Log4GUI: writeback: 751000000: 0: 10194: blt x20, x21, -28
751000000: system.cpu.writeback: REGISTERS
751000000: global: x0=0x00000000
751000000: global: x1=0x000111c0
751000000: global: x2=0x000111ca
751000000: global: x3=0x00000001
751000000: global: x4=0x00000007
751000000: global: x5=0x0000000a
751000000: global: x6=0x00000001
751000000: global: x7=0x00000002
751000000: global: x8=0x00000000
751000000: global: x9=0x00000000
751000000: global: x10=0x00000000
751000000: global: x11=0x000111d4
751000000: global: x12=0x00000004
751000000: global: x13=0x000111d6
751000000: global: x14=0x000111df
751000000: global: x15=0x000111e0
751000000: global: x16=0x000111e1
751000000: global: x17=0x00000000
751000000: global: x18=0x00000000
751000000: global: x19=0x00000000
751000000: global: x20=0x00000009
751000000: global: x21=0x00000009
751000000: global: x22=0x00000000
751000000: global: x23=0x00000000
751000000: global: x24=0x00000000
751000000: global: x25=0x00000000
751000000: global: x26=0x00000000
751000000: global: x27=0x00000000
751000000: global: x28=0x00000000
751000000: global: x29=0x00000000
751000000: global: x30=0x00000000
751000000: global: x31=0x00000000
751000000: global: f0=0x00000000
751000000: global: f1=0x00000000
751000000: global: f2=0x00000000
751000000: global: f3=0x00000000
751000000: global: f4=0x00000000
751000000: global: f5=0x00000000
751000000: global: f6=0x00000000
751000000: global: f7=0x00000000
751000000: global: f8=0x00000000
751000000: global: f9=0x00000000
751000000: global: f10=0x00000000
751000000: global: f11=0x00000000
751000000: global: f12=0x00000000
751000000: global: f13=0x00000000
751000000: global: f14=0x00000000
751000000: global: f15=0x00000000
751000000: global: f16=0x00000000
751000000: global: f17=0x00000000
751000000: global: f18=0x00000000
751000000: global: f19=0x00000000
751000000: global: f20=0x00000000
751000000: global: f21=0x00000000
751000000: global: f22=0x00000000
751000000: global: f23=0x00000000
751000000: global: f24=0x00000000
751000000: global: f25=0x00000000
751000000: global: f26=0x00000000
751000000: global: f27=0x00000000
751000000: global: f28=0x00000000
751000000: global: f29=0x00000000
751000000: global: f30=0x00000000
751000000: global: f31=0x00000000
751000000: system.cpu.memory: Log4GUI: memory: 751000000: 0: 10198: jal x0, 28
751000000: system.cpu.decode: Log4GUI: decode: 751000000: 0: 101b4: addi x10, x0, 0
751000000: system.cpu.fetch1: Log4GUI: fetch1: 751000000: 0: 101b8: <assembly>
752000000: system.cpu.writeback: Log4GUI: writeback: 752000000: 0: 10198: jal x0, 28
752000000: system.cpu.writeback: REGISTERS
752000000: global: x0=0x00000000
752000000: global: x1=0x000111c0
752000000: global: x2=0x000111ca
752000000: global: x3=0x00000001
752000000: global: x4=0x00000007
752000000: global: x5=0x0000000a
752000000: global: x6=0x00000001
752000000: global: x7=0x00000002
752000000: global: x8=0x00000000
752000000: global: x9=0x00000000
752000000: global: x10=0x00000000
752000000: global: x11=0x000111d4
752000000: global: x12=0x00000004
752000000: global: x13=0x000111d6
752000000: global: x14=0x000111df
752000000: global: x15=0x000111e0
752000000: global: x16=0x000111e1
752000000: global: x17=0x00000000
752000000: global: x18=0x00000000
752000000: global: x19=0x00000000
752000000: global: x20=0x00000009
752000000: global: x21=0x00000009
752000000: global: x22=0x00000000
752000000: global: x23=0x00000000
752000000: global: x24=0x00000000
752000000: global: x25=0x00000000
752000000: global: x26=0x00000000
752000000: global: x27=0x00000000
752000000: global: x28=0x00000000
752000000: global: x29=0x00000000
752000000: global: x30=0x00000000
752000000: global: x31=0x00000000
752000000: global: f0=0x00000000
752000000: global: f1=0x00000000
752000000: global: f2=0x00000000
752000000: global: f3=0x00000000
752000000: global: f4=0x00000000
752000000: global: f5=0x00000000
752000000: global: f6=0x00000000
752000000: global: f7=0x00000000
752000000: global: f8=0x00000000
752000000: global: f9=0x00000000
752000000: global: f10=0x00000000
752000000: global: f11=0x00000000
752000000: global: f12=0x00000000
752000000: global: f13=0x00000000
752000000: global: f14=0x00000000
752000000: global: f15=0x00000000
752000000: global: f16=0x00000000
752000000: global: f17=0x00000000
752000000: global: f18=0x00000000
752000000: global: f19=0x00000000
752000000: global: f20=0x00000000
752000000: global: f21=0x00000000
752000000: global: f22=0x00000000
752000000: global: f23=0x00000000
752000000: global: f24=0x00000000
752000000: global: f25=0x00000000
752000000: global: f26=0x00000000
752000000: global: f27=0x00000000
752000000: global: f28=0x00000000
752000000: global: f29=0x00000000
752000000: global: f30=0x00000000
752000000: global: f31=0x00000000
752000000: system.cpu.execute: Log4GUI: execute: 752000000: 0: 101b4: addi x10, x0, 0: 0
752000000: system.cpu.decode: Log4GUI: decode: 752000000: 0: 101b8: addi x17, x0, 93
752000000: system.cpu.fetch1: Log4GUI: fetch1: 752000000: 0: 101bc: <assembly>
753000000: system.cpu.memory: Log4GUI: memory: 753000000: 0: 101b4: addi x10, x0, 0
753000000: system.cpu.execute: Log4GUI: execute: 753000000: 0: 101b8: addi x17, x0, 93: 0
753000000: system.cpu.decode: Log4GUI: decode: 753000000: 0: 101bc: ecall
753000000: system.cpu.fetch1: Log4GUI: fetch1: 753000000: 0: 101c0: <assembly>
754000000: system.cpu.writeback: Log4GUI: writeback: 754000000: 0: 101b4: addi x10, x0, 0
754000000: system.cpu.writeback: REGISTERS
754000000: global: x0=0x00000000
754000000: global: x1=0x000111c0
754000000: global: x2=0x000111ca
754000000: global: x3=0x00000001
754000000: global: x4=0x00000007
754000000: global: x5=0x0000000a
754000000: global: x6=0x00000001
754000000: global: x7=0x00000002
754000000: global: x8=0x00000000
754000000: global: x9=0x00000000
754000000: global: x10=0x00000000
754000000: global: x11=0x000111d4
754000000: global: x12=0x00000004
754000000: global: x13=0x000111d6
754000000: global: x14=0x000111df
754000000: global: x15=0x000111e0
754000000: global: x16=0x000111e1
754000000: global: x17=0x00000000
754000000: global: x18=0x00000000
754000000: global: x19=0x00000000
754000000: global: x20=0x00000009
754000000: global: x21=0x00000009
754000000: global: x22=0x00000000
754000000: global: x23=0x00000000
754000000: global: x24=0x00000000
754000000: global: x25=0x00000000
754000000: global: x26=0x00000000
754000000: global: x27=0x00000000
754000000: global: x28=0x00000000
754000000: global: x29=0x00000000
754000000: global: x30=0x00000000
754000000: global: x31=0x00000000
754000000: global: f0=0x00000000
754000000: global: f1=0x00000000
754000000: global: f2=0x00000000
754000000: global: f3=0x00000000
754000000: global: f4=0x00000000
754000000: global: f5=0x00000000
754000000: global: f6=0x00000000
754000000: global: f7=0x00000000
754000000: global: f8=0x00000000
754000000: global: f9=0x00000000
754000000: global: f10=0x00000000
754000000: global: f11=0x00000000
754000000: global: f12=0x00000000
754000000: global: f13=0x00000000
754000000: global: f14=0x00000000
754000000: global: f15=0x00000000
754000000: global: f16=0x00000000
754000000: global: f17=0x00000000
754000000: global: f18=0x00000000
754000000: global: f19=0x00000000
754000000: global: f20=0x00000000
754000000: global: f21=0x00000000
754000000: global: f22=0x00000000
754000000: global: f23=0x00000000
754000000: global: f24=0x00000000
754000000: global: f25=0x00000000
754000000: global: f26=0x00000000
754000000: global: f27=0x00000000
754000000: global: f28=0x00000000
754000000: global: f29=0x00000000
754000000: global: f30=0x00000000
754000000: global: f31=0x00000000
754000000: system.cpu.memory: Log4GUI: memory: 754000000: 0: 101b8: addi x17, x0, 93
754000000: system.cpu.execute: Log4GUI: execute: 754000000: 0: 101bc: ecall: -1
754000000: system.cpu.decode: Log4GUI: decode: 754000000: 0: 101c0: c_addi4spn x8, x2, 0
754000000: system.cpu.fetch1: Log4GUI: fetch1: 754000000: 0: 101c2: <assembly>
Exiting @ tick 754000000 because exiting with last active thread context
