Global frequency set at 1000000000000 ticks per second
gem5 Simulator System.  https://www.gem5.org
gem5 is copyrighted software; use the --copyright option for details.

gem5 version 22.1.0.0
gem5 compiled Aug 27 2025 16:10:28
gem5 started Oct 11 2025 11:42:18
gem5 executing on vboxuser-VirtualBox, pid 4806
command line: /home/vboxuser/gem5/build/RISCV/gem5.opt --debug-flags=MinorGUI gem5_config.py --cpu-type MinorCPU --caches --l1d_size 8388608 --l1i_size 8388608 --cacheline_size 512 --cpu-clock 1MHz --sys-clock 10GHz -c calculate_pi

**** REAL SIMULATION ****
1000000: system.cpu.fetch1: Log4GUI: fetch1: 1000000: 0: 10094: <assembly>
2000000: system.cpu.fetch1: Log4GUI: fetch1: 2000000: 1: 10094: <assembly>
3000000: system.cpu.fetch1: Log4GUI: fetch1: 3000000: 1: 10094: <assembly>
4000000: system.cpu.fetch1: Log4GUI: fetch1: 4000000: 1: 10094: <assembly>
5000000: system.cpu.decode: Log4GUI: decode: 5000000: 0: 10094: auipc x5, 1
5000000: system.cpu.fetch1: Log4GUI: fetch1: 5000000: 0: 10098: <assembly>
6000000: system.cpu.execute: Log4GUI: execute: 6000000: 0: 10094: auipc x5, 1: 0
6000000: system.cpu.decode: Log4GUI: decode: 6000000: 0: 10098: flw f0, 172(x5)
6000000: system.cpu.fetch1: Log4GUI: fetch1: 6000000: 0: 1009c: <assembly>
7000000: system.cpu.memory: Log4GUI: memory: 7000000: 0: 10094: auipc x5, 1
7000000: system.cpu.execute: Log4GUI: execute: 7000000: 0: 10098: flw f0, 172(x5): 0
7000000: system.cpu.decode: Log4GUI: decode: 7000000: 0: 1009c: auipc x5, 1
7000000: system.cpu.fetch1: Log4GUI: fetch1: 7000000: 0: 100a0: <assembly>
8000000: system.cpu.writeback: Log4GUI: writeback: 8000000: 0: 10094: auipc x5, 1
8000000: system.cpu.writeback: REGISTERS
8000000: global: x0=0x00000000
8000000: global: x1=0x00000000
8000000: global: x2=0x7fffff90
8000000: global: x3=0x00000000
8000000: global: x4=0x00000000
8000000: global: x5=0x00011094
8000000: global: x6=0x00000000
8000000: global: x7=0x00000000
8000000: global: x8=0x00000000
8000000: global: x9=0x00000000
8000000: global: x10=0x00000000
8000000: global: x11=0x00000000
8000000: global: x12=0x00000000
8000000: global: x13=0x00000000
8000000: global: x14=0x00000000
8000000: global: x15=0x00000000
8000000: global: x16=0x00000000
8000000: global: x17=0x00000000
8000000: global: x18=0x00000000
8000000: global: x19=0x00000000
8000000: global: x20=0x00000000
8000000: global: x21=0x00000000
8000000: global: x22=0x00000000
8000000: global: x23=0x00000000
8000000: global: x24=0x00000000
8000000: global: x25=0x00000000
8000000: global: x26=0x00000000
8000000: global: x27=0x00000000
8000000: global: x28=0x00000000
8000000: global: x29=0x00000000
8000000: global: x30=0x00000000
8000000: global: x31=0x00000000
8000000: global: f0=0x00000000
8000000: global: f1=0x00000000
8000000: global: f2=0x00000000
8000000: global: f3=0x00000000
8000000: global: f4=0x00000000
8000000: global: f5=0x00000000
8000000: global: f6=0x00000000
8000000: global: f7=0x00000000
8000000: global: f8=0x00000000
8000000: global: f9=0x00000000
8000000: global: f10=0x00000000
8000000: global: f11=0x00000000
8000000: global: f12=0x00000000
8000000: global: f13=0x00000000
8000000: global: f14=0x00000000
8000000: global: f15=0x00000000
8000000: global: f16=0x00000000
8000000: global: f17=0x00000000
8000000: global: f18=0x00000000
8000000: global: f19=0x00000000
8000000: global: f20=0x00000000
8000000: global: f21=0x00000000
8000000: global: f22=0x00000000
8000000: global: f23=0x00000000
8000000: global: f24=0x00000000
8000000: global: f25=0x00000000
8000000: global: f26=0x00000000
8000000: global: f27=0x00000000
8000000: global: f28=0x00000000
8000000: global: f29=0x00000000
8000000: global: f30=0x00000000
8000000: global: f31=0x00000000
8000000: system.cpu.memory: Log4GUI: memory: 8000000: 0: 10098: flw f0, 172(x5)
8000000: system.cpu.execute: Log4GUI: execute: 8000000: 0: 1009c: auipc x5, 1: 0
8000000: system.cpu.decode: Log4GUI: decode: 8000000: 0: 100a0: flw f1, 152(x5)
8000000: system.cpu.fetch1: Log4GUI: fetch1: 8000000: 0: 100a4: <assembly>
9000000: system.cpu.memory: Log4GUI: memory: 9000000: 1: 10098: flw f0, 172(x5)
9000000: system.cpu.execute: Log4GUI: execute: 9000000: 1: 1009c: auipc x5, 1: 0
9000000: system.cpu.decode: Log4GUI: decode: 9000000: 1: 100a0: flw f1, 152(x5)
9000000: system.cpu.fetch1: Log4GUI: fetch1: 9000000: 1: 100a4: <assembly>
10000000: system.cpu.decode: Log4GUI: decode: 10000000: 1: 100a0: flw f1, 152(x5)
10000000: system.cpu.fetch1: Log4GUI: fetch1: 10000000: 1: 100a4: <assembly>
11000000: system.cpu.writeback: Log4GUI: writeback: 11000000: 0: 10098: flw f0, 172(x5)
11000000: system.cpu.writeback: REGISTERS
11000000: global: x0=0x00000000
11000000: global: x1=0x00000000
11000000: global: x2=0x7fffff90
11000000: global: x3=0x00000000
11000000: global: x4=0x00000000
11000000: global: x5=0x00011094
11000000: global: x6=0x00000000
11000000: global: x7=0x00000000
11000000: global: x8=0x00000000
11000000: global: x9=0x00000000
11000000: global: x10=0x00000000
11000000: global: x11=0x00000000
11000000: global: x12=0x00000000
11000000: global: x13=0x00000000
11000000: global: x14=0x00000000
11000000: global: x15=0x00000000
11000000: global: x16=0x00000000
11000000: global: x17=0x00000000
11000000: global: x18=0x00000000
11000000: global: x19=0x00000000
11000000: global: x20=0x00000000
11000000: global: x21=0x00000000
11000000: global: x22=0x00000000
11000000: global: x23=0x00000000
11000000: global: x24=0x00000000
11000000: global: x25=0x00000000
11000000: global: x26=0x00000000
11000000: global: x27=0x00000000
11000000: global: x28=0x00000000
11000000: global: x29=0x00000000
11000000: global: x30=0x00000000
11000000: global: x31=0x00000000
11000000: global: f0=0x3f800000
11000000: global: f1=0x00000000
11000000: global: f2=0x00000000
11000000: global: f3=0x00000000
11000000: global: f4=0x00000000
11000000: global: f5=0x00000000
11000000: global: f6=0x00000000
11000000: global: f7=0x00000000
11000000: global: f8=0x00000000
11000000: global: f9=0x00000000
11000000: global: f10=0x00000000
11000000: global: f11=0x00000000
11000000: global: f12=0x00000000
11000000: global: f13=0x00000000
11000000: global: f14=0x00000000
11000000: global: f15=0x00000000
11000000: global: f16=0x00000000
11000000: global: f17=0x00000000
11000000: global: f18=0x00000000
11000000: global: f19=0x00000000
11000000: global: f20=0x00000000
11000000: global: f21=0x00000000
11000000: global: f22=0x00000000
11000000: global: f23=0x00000000
11000000: global: f24=0x00000000
11000000: global: f25=0x00000000
11000000: global: f26=0x00000000
11000000: global: f27=0x00000000
11000000: global: f28=0x00000000
11000000: global: f29=0x00000000
11000000: global: f30=0x00000000
11000000: global: f31=0x00000000
11000000: system.cpu.memory: Log4GUI: memory: 11000000: 0: 1009c: auipc x5, 1
11000000: system.cpu.execute: Log4GUI: execute: 11000000: 0: 100a0: flw f1, 152(x5): 0
11000000: system.cpu.decode: Log4GUI: decode: 11000000: 0: 100a4: auipc x5, 1
11000000: system.cpu.fetch1: Log4GUI: fetch1: 11000000: 0: 100a8: <assembly>
12000000: system.cpu.writeback: Log4GUI: writeback: 12000000: 0: 1009c: auipc x5, 1
12000000: system.cpu.writeback: REGISTERS
12000000: global: x0=0x00000000
12000000: global: x1=0x00000000
12000000: global: x2=0x7fffff90
12000000: global: x3=0x00000000
12000000: global: x4=0x00000000
12000000: global: x5=0x0001109c
12000000: global: x6=0x00000000
12000000: global: x7=0x00000000
12000000: global: x8=0x00000000
12000000: global: x9=0x00000000
12000000: global: x10=0x00000000
12000000: global: x11=0x00000000
12000000: global: x12=0x00000000
12000000: global: x13=0x00000000
12000000: global: x14=0x00000000
12000000: global: x15=0x00000000
12000000: global: x16=0x00000000
12000000: global: x17=0x00000000
12000000: global: x18=0x00000000
12000000: global: x19=0x00000000
12000000: global: x20=0x00000000
12000000: global: x21=0x00000000
12000000: global: x22=0x00000000
12000000: global: x23=0x00000000
12000000: global: x24=0x00000000
12000000: global: x25=0x00000000
12000000: global: x26=0x00000000
12000000: global: x27=0x00000000
12000000: global: x28=0x00000000
12000000: global: x29=0x00000000
12000000: global: x30=0x00000000
12000000: global: x31=0x00000000
12000000: global: f0=0x3f800000
12000000: global: f1=0x00000000
12000000: global: f2=0x00000000
12000000: global: f3=0x00000000
12000000: global: f4=0x00000000
12000000: global: f5=0x00000000
12000000: global: f6=0x00000000
12000000: global: f7=0x00000000
12000000: global: f8=0x00000000
12000000: global: f9=0x00000000
12000000: global: f10=0x00000000
12000000: global: f11=0x00000000
12000000: global: f12=0x00000000
12000000: global: f13=0x00000000
12000000: global: f14=0x00000000
12000000: global: f15=0x00000000
12000000: global: f16=0x00000000
12000000: global: f17=0x00000000
12000000: global: f18=0x00000000
12000000: global: f19=0x00000000
12000000: global: f20=0x00000000
12000000: global: f21=0x00000000
12000000: global: f22=0x00000000
12000000: global: f23=0x00000000
12000000: global: f24=0x00000000
12000000: global: f25=0x00000000
12000000: global: f26=0x00000000
12000000: global: f27=0x00000000
12000000: global: f28=0x00000000
12000000: global: f29=0x00000000
12000000: global: f30=0x00000000
12000000: global: f31=0x00000000
12000000: system.cpu.memory: Log4GUI: memory: 12000000: 0: 100a0: flw f1, 152(x5)
12000000: system.cpu.execute: Log4GUI: execute: 12000000: 0: 100a4: auipc x5, 1: 0
12000000: system.cpu.decode: Log4GUI: decode: 12000000: 0: 100a8: flw f2, 148(x5)
12000000: system.cpu.fetch1: Log4GUI: fetch1: 12000000: 0: 100ac: <assembly>
13000000: system.cpu.writeback: Log4GUI: writeback: 13000000: 0: 100a0: flw f1, 152(x5)
13000000: system.cpu.writeback: REGISTERS
13000000: global: x0=0x00000000
13000000: global: x1=0x00000000
13000000: global: x2=0x7fffff90
13000000: global: x3=0x00000000
13000000: global: x4=0x00000000
13000000: global: x5=0x0001109c
13000000: global: x6=0x00000000
13000000: global: x7=0x00000000
13000000: global: x8=0x00000000
13000000: global: x9=0x00000000
13000000: global: x10=0x00000000
13000000: global: x11=0x00000000
13000000: global: x12=0x00000000
13000000: global: x13=0x00000000
13000000: global: x14=0x00000000
13000000: global: x15=0x00000000
13000000: global: x16=0x00000000
13000000: global: x17=0x00000000
13000000: global: x18=0x00000000
13000000: global: x19=0x00000000
13000000: global: x20=0x00000000
13000000: global: x21=0x00000000
13000000: global: x22=0x00000000
13000000: global: x23=0x00000000
13000000: global: x24=0x00000000
13000000: global: x25=0x00000000
13000000: global: x26=0x00000000
13000000: global: x27=0x00000000
13000000: global: x28=0x00000000
13000000: global: x29=0x00000000
13000000: global: x30=0x00000000
13000000: global: x31=0x00000000
13000000: global: f0=0x3f800000
13000000: global: f1=0x41800000
13000000: global: f2=0x00000000
13000000: global: f3=0x00000000
13000000: global: f4=0x00000000
13000000: global: f5=0x00000000
13000000: global: f6=0x00000000
13000000: global: f7=0x00000000
13000000: global: f8=0x00000000
13000000: global: f9=0x00000000
13000000: global: f10=0x00000000
13000000: global: f11=0x00000000
13000000: global: f12=0x00000000
13000000: global: f13=0x00000000
13000000: global: f14=0x00000000
13000000: global: f15=0x00000000
13000000: global: f16=0x00000000
13000000: global: f17=0x00000000
13000000: global: f18=0x00000000
13000000: global: f19=0x00000000
13000000: global: f20=0x00000000
13000000: global: f21=0x00000000
13000000: global: f22=0x00000000
13000000: global: f23=0x00000000
13000000: global: f24=0x00000000
13000000: global: f25=0x00000000
13000000: global: f26=0x00000000
13000000: global: f27=0x00000000
13000000: global: f28=0x00000000
13000000: global: f29=0x00000000
13000000: global: f30=0x00000000
13000000: global: f31=0x00000000
13000000: system.cpu.memory: Log4GUI: memory: 13000000: 0: 100a4: auipc x5, 1
13000000: system.cpu.execute: Log4GUI: execute: 13000000: 0: 100a8: flw f2, 148(x5): 0
13000000: system.cpu.decode: Log4GUI: decode: 13000000: 0: 100ac: auipc x5, 1
13000000: system.cpu.fetch1: Log4GUI: fetch1: 13000000: 0: 100b0: <assembly>
14000000: system.cpu.writeback: Log4GUI: writeback: 14000000: 0: 100a4: auipc x5, 1
14000000: system.cpu.writeback: REGISTERS
14000000: global: x0=0x00000000
14000000: global: x1=0x00000000
14000000: global: x2=0x7fffff90
14000000: global: x3=0x00000000
14000000: global: x4=0x00000000
14000000: global: x5=0x000110a4
14000000: global: x6=0x00000000
14000000: global: x7=0x00000000
14000000: global: x8=0x00000000
14000000: global: x9=0x00000000
14000000: global: x10=0x00000000
14000000: global: x11=0x00000000
14000000: global: x12=0x00000000
14000000: global: x13=0x00000000
14000000: global: x14=0x00000000
14000000: global: x15=0x00000000
14000000: global: x16=0x00000000
14000000: global: x17=0x00000000
14000000: global: x18=0x00000000
14000000: global: x19=0x00000000
14000000: global: x20=0x00000000
14000000: global: x21=0x00000000
14000000: global: x22=0x00000000
14000000: global: x23=0x00000000
14000000: global: x24=0x00000000
14000000: global: x25=0x00000000
14000000: global: x26=0x00000000
14000000: global: x27=0x00000000
14000000: global: x28=0x00000000
14000000: global: x29=0x00000000
14000000: global: x30=0x00000000
14000000: global: x31=0x00000000
14000000: global: f0=0x3f800000
14000000: global: f1=0x41800000
14000000: global: f2=0x00000000
14000000: global: f3=0x00000000
14000000: global: f4=0x00000000
14000000: global: f5=0x00000000
14000000: global: f6=0x00000000
14000000: global: f7=0x00000000
14000000: global: f8=0x00000000
14000000: global: f9=0x00000000
14000000: global: f10=0x00000000
14000000: global: f11=0x00000000
14000000: global: f12=0x00000000
14000000: global: f13=0x00000000
14000000: global: f14=0x00000000
14000000: global: f15=0x00000000
14000000: global: f16=0x00000000
14000000: global: f17=0x00000000
14000000: global: f18=0x00000000
14000000: global: f19=0x00000000
14000000: global: f20=0x00000000
14000000: global: f21=0x00000000
14000000: global: f22=0x00000000
14000000: global: f23=0x00000000
14000000: global: f24=0x00000000
14000000: global: f25=0x00000000
14000000: global: f26=0x00000000
14000000: global: f27=0x00000000
14000000: global: f28=0x00000000
14000000: global: f29=0x00000000
14000000: global: f30=0x00000000
14000000: global: f31=0x00000000
14000000: system.cpu.memory: Log4GUI: memory: 14000000: 0: 100a8: flw f2, 148(x5)
14000000: system.cpu.execute: Log4GUI: execute: 14000000: 0: 100ac: auipc x5, 1: 0
14000000: system.cpu.decode: Log4GUI: decode: 14000000: 0: 100b0: flw f3, 144(x5)
14000000: system.cpu.fetch1: Log4GUI: fetch1: 14000000: 0: 100b4: <assembly>
15000000: system.cpu.writeback: Log4GUI: writeback: 15000000: 0: 100a8: flw f2, 148(x5)
15000000: system.cpu.writeback: REGISTERS
15000000: global: x0=0x00000000
15000000: global: x1=0x00000000
15000000: global: x2=0x7fffff90
15000000: global: x3=0x00000000
15000000: global: x4=0x00000000
15000000: global: x5=0x000110a4
15000000: global: x6=0x00000000
15000000: global: x7=0x00000000
15000000: global: x8=0x00000000
15000000: global: x9=0x00000000
15000000: global: x10=0x00000000
15000000: global: x11=0x00000000
15000000: global: x12=0x00000000
15000000: global: x13=0x00000000
15000000: global: x14=0x00000000
15000000: global: x15=0x00000000
15000000: global: x16=0x00000000
15000000: global: x17=0x00000000
15000000: global: x18=0x00000000
15000000: global: x19=0x00000000
15000000: global: x20=0x00000000
15000000: global: x21=0x00000000
15000000: global: x22=0x00000000
15000000: global: x23=0x00000000
15000000: global: x24=0x00000000
15000000: global: x25=0x00000000
15000000: global: x26=0x00000000
15000000: global: x27=0x00000000
15000000: global: x28=0x00000000
15000000: global: x29=0x00000000
15000000: global: x30=0x00000000
15000000: global: x31=0x00000000
15000000: global: f0=0x3f800000
15000000: global: f1=0x41800000
15000000: global: f2=0x40800000
15000000: global: f3=0x00000000
15000000: global: f4=0x00000000
15000000: global: f5=0x00000000
15000000: global: f6=0x00000000
15000000: global: f7=0x00000000
15000000: global: f8=0x00000000
15000000: global: f9=0x00000000
15000000: global: f10=0x00000000
15000000: global: f11=0x00000000
15000000: global: f12=0x00000000
15000000: global: f13=0x00000000
15000000: global: f14=0x00000000
15000000: global: f15=0x00000000
15000000: global: f16=0x00000000
15000000: global: f17=0x00000000
15000000: global: f18=0x00000000
15000000: global: f19=0x00000000
15000000: global: f20=0x00000000
15000000: global: f21=0x00000000
15000000: global: f22=0x00000000
15000000: global: f23=0x00000000
15000000: global: f24=0x00000000
15000000: global: f25=0x00000000
15000000: global: f26=0x00000000
15000000: global: f27=0x00000000
15000000: global: f28=0x00000000
15000000: global: f29=0x00000000
15000000: global: f30=0x00000000
15000000: global: f31=0x00000000
15000000: system.cpu.memory: Log4GUI: memory: 15000000: 0: 100ac: auipc x5, 1
15000000: system.cpu.execute: Log4GUI: execute: 15000000: 0: 100b0: flw f3, 144(x5): 0
15000000: system.cpu.decode: Log4GUI: decode: 15000000: 0: 100b4: auipc x5, 1
15000000: system.cpu.fetch1: Log4GUI: fetch1: 15000000: 0: 100b8: <assembly>
16000000: system.cpu.writeback: Log4GUI: writeback: 16000000: 0: 100ac: auipc x5, 1
16000000: system.cpu.writeback: REGISTERS
16000000: global: x0=0x00000000
16000000: global: x1=0x00000000
16000000: global: x2=0x7fffff90
16000000: global: x3=0x00000000
16000000: global: x4=0x00000000
16000000: global: x5=0x000110ac
16000000: global: x6=0x00000000
16000000: global: x7=0x00000000
16000000: global: x8=0x00000000
16000000: global: x9=0x00000000
16000000: global: x10=0x00000000
16000000: global: x11=0x00000000
16000000: global: x12=0x00000000
16000000: global: x13=0x00000000
16000000: global: x14=0x00000000
16000000: global: x15=0x00000000
16000000: global: x16=0x00000000
16000000: global: x17=0x00000000
16000000: global: x18=0x00000000
16000000: global: x19=0x00000000
16000000: global: x20=0x00000000
16000000: global: x21=0x00000000
16000000: global: x22=0x00000000
16000000: global: x23=0x00000000
16000000: global: x24=0x00000000
16000000: global: x25=0x00000000
16000000: global: x26=0x00000000
16000000: global: x27=0x00000000
16000000: global: x28=0x00000000
16000000: global: x29=0x00000000
16000000: global: x30=0x00000000
16000000: global: x31=0x00000000
16000000: global: f0=0x3f800000
16000000: global: f1=0x41800000
16000000: global: f2=0x40800000
16000000: global: f3=0x00000000
16000000: global: f4=0x00000000
16000000: global: f5=0x00000000
16000000: global: f6=0x00000000
16000000: global: f7=0x00000000
16000000: global: f8=0x00000000
16000000: global: f9=0x00000000
16000000: global: f10=0x00000000
16000000: global: f11=0x00000000
16000000: global: f12=0x00000000
16000000: global: f13=0x00000000
16000000: global: f14=0x00000000
16000000: global: f15=0x00000000
16000000: global: f16=0x00000000
16000000: global: f17=0x00000000
16000000: global: f18=0x00000000
16000000: global: f19=0x00000000
16000000: global: f20=0x00000000
16000000: global: f21=0x00000000
16000000: global: f22=0x00000000
16000000: global: f23=0x00000000
16000000: global: f24=0x00000000
16000000: global: f25=0x00000000
16000000: global: f26=0x00000000
16000000: global: f27=0x00000000
16000000: global: f28=0x00000000
16000000: global: f29=0x00000000
16000000: global: f30=0x00000000
16000000: global: f31=0x00000000
16000000: system.cpu.memory: Log4GUI: memory: 16000000: 0: 100b0: flw f3, 144(x5)
16000000: system.cpu.execute: Log4GUI: execute: 16000000: 0: 100b4: auipc x5, 1: 0
16000000: system.cpu.decode: Log4GUI: decode: 16000000: 0: 100b8: flw f4, 144(x5)
16000000: system.cpu.fetch1: Log4GUI: fetch1: 16000000: 0: 100bc: <assembly>
17000000: system.cpu.writeback: Log4GUI: writeback: 17000000: 0: 100b0: flw f3, 144(x5)
17000000: system.cpu.writeback: REGISTERS
17000000: global: x0=0x00000000
17000000: global: x1=0x00000000
17000000: global: x2=0x7fffff90
17000000: global: x3=0x00000000
17000000: global: x4=0x00000000
17000000: global: x5=0x000110ac
17000000: global: x6=0x00000000
17000000: global: x7=0x00000000
17000000: global: x8=0x00000000
17000000: global: x9=0x00000000
17000000: global: x10=0x00000000
17000000: global: x11=0x00000000
17000000: global: x12=0x00000000
17000000: global: x13=0x00000000
17000000: global: x14=0x00000000
17000000: global: x15=0x00000000
17000000: global: x16=0x00000000
17000000: global: x17=0x00000000
17000000: global: x18=0x00000000
17000000: global: x19=0x00000000
17000000: global: x20=0x00000000
17000000: global: x21=0x00000000
17000000: global: x22=0x00000000
17000000: global: x23=0x00000000
17000000: global: x24=0x00000000
17000000: global: x25=0x00000000
17000000: global: x26=0x00000000
17000000: global: x27=0x00000000
17000000: global: x28=0x00000000
17000000: global: x29=0x00000000
17000000: global: x30=0x00000000
17000000: global: x31=0x00000000
17000000: global: f0=0x3f800000
17000000: global: f1=0x41800000
17000000: global: f2=0x40800000
17000000: global: f3=0x40000000
17000000: global: f4=0x00000000
17000000: global: f5=0x00000000
17000000: global: f6=0x00000000
17000000: global: f7=0x00000000
17000000: global: f8=0x00000000
17000000: global: f9=0x00000000
17000000: global: f10=0x00000000
17000000: global: f11=0x00000000
17000000: global: f12=0x00000000
17000000: global: f13=0x00000000
17000000: global: f14=0x00000000
17000000: global: f15=0x00000000
17000000: global: f16=0x00000000
17000000: global: f17=0x00000000
17000000: global: f18=0x00000000
17000000: global: f19=0x00000000
17000000: global: f20=0x00000000
17000000: global: f21=0x00000000
17000000: global: f22=0x00000000
17000000: global: f23=0x00000000
17000000: global: f24=0x00000000
17000000: global: f25=0x00000000
17000000: global: f26=0x00000000
17000000: global: f27=0x00000000
17000000: global: f28=0x00000000
17000000: global: f29=0x00000000
17000000: global: f30=0x00000000
17000000: global: f31=0x00000000
17000000: system.cpu.memory: Log4GUI: memory: 17000000: 0: 100b4: auipc x5, 1
17000000: system.cpu.execute: Log4GUI: execute: 17000000: 0: 100b8: flw f4, 144(x5): 0
17000000: system.cpu.decode: Log4GUI: decode: 17000000: 0: 100bc: fsgnj_s f10, f0, f0
17000000: system.cpu.fetch1: Log4GUI: fetch1: 17000000: 0: 100c0: <assembly>
18000000: system.cpu.writeback: Log4GUI: writeback: 18000000: 0: 100b4: auipc x5, 1
18000000: system.cpu.writeback: REGISTERS
18000000: global: x0=0x00000000
18000000: global: x1=0x00000000
18000000: global: x2=0x7fffff90
18000000: global: x3=0x00000000
18000000: global: x4=0x00000000
18000000: global: x5=0x000110b4
18000000: global: x6=0x00000000
18000000: global: x7=0x00000000
18000000: global: x8=0x00000000
18000000: global: x9=0x00000000
18000000: global: x10=0x00000000
18000000: global: x11=0x00000000
18000000: global: x12=0x00000000
18000000: global: x13=0x00000000
18000000: global: x14=0x00000000
18000000: global: x15=0x00000000
18000000: global: x16=0x00000000
18000000: global: x17=0x00000000
18000000: global: x18=0x00000000
18000000: global: x19=0x00000000
18000000: global: x20=0x00000000
18000000: global: x21=0x00000000
18000000: global: x22=0x00000000
18000000: global: x23=0x00000000
18000000: global: x24=0x00000000
18000000: global: x25=0x00000000
18000000: global: x26=0x00000000
18000000: global: x27=0x00000000
18000000: global: x28=0x00000000
18000000: global: x29=0x00000000
18000000: global: x30=0x00000000
18000000: global: x31=0x00000000
18000000: global: f0=0x3f800000
18000000: global: f1=0x41800000
18000000: global: f2=0x40800000
18000000: global: f3=0x40000000
18000000: global: f4=0x00000000
18000000: global: f5=0x00000000
18000000: global: f6=0x00000000
18000000: global: f7=0x00000000
18000000: global: f8=0x00000000
18000000: global: f9=0x00000000
18000000: global: f10=0x00000000
18000000: global: f11=0x00000000
18000000: global: f12=0x00000000
18000000: global: f13=0x00000000
18000000: global: f14=0x00000000
18000000: global: f15=0x00000000
18000000: global: f16=0x00000000
18000000: global: f17=0x00000000
18000000: global: f18=0x00000000
18000000: global: f19=0x00000000
18000000: global: f20=0x00000000
18000000: global: f21=0x00000000
18000000: global: f22=0x00000000
18000000: global: f23=0x00000000
18000000: global: f24=0x00000000
18000000: global: f25=0x00000000
18000000: global: f26=0x00000000
18000000: global: f27=0x00000000
18000000: global: f28=0x00000000
18000000: global: f29=0x00000000
18000000: global: f30=0x00000000
18000000: global: f31=0x00000000
18000000: system.cpu.memory: Log4GUI: memory: 18000000: 0: 100b8: flw f4, 144(x5)
18000000: system.cpu.execute: Log4GUI: execute: 18000000: 0: 100bc: fsgnj_s f10, f0, f0: 3
18000000: system.cpu.decode: Log4GUI: decode: 18000000: 0: 100c0: fsgnj_s f11, f0, f0
18000000: system.cpu.fetch1: Log4GUI: fetch1: 18000000: 0: 100c4: <assembly>
19000000: system.cpu.writeback: Log4GUI: writeback: 19000000: 0: 100b8: flw f4, 144(x5)
19000000: system.cpu.writeback: REGISTERS
19000000: global: x0=0x00000000
19000000: global: x1=0x00000000
19000000: global: x2=0x7fffff90
19000000: global: x3=0x00000000
19000000: global: x4=0x00000000
19000000: global: x5=0x000110b4
19000000: global: x6=0x00000000
19000000: global: x7=0x00000000
19000000: global: x8=0x00000000
19000000: global: x9=0x00000000
19000000: global: x10=0x00000000
19000000: global: x11=0x00000000
19000000: global: x12=0x00000000
19000000: global: x13=0x00000000
19000000: global: x14=0x00000000
19000000: global: x15=0x00000000
19000000: global: x16=0x00000000
19000000: global: x17=0x00000000
19000000: global: x18=0x00000000
19000000: global: x19=0x00000000
19000000: global: x20=0x00000000
19000000: global: x21=0x00000000
19000000: global: x22=0x00000000
19000000: global: x23=0x00000000
19000000: global: x24=0x00000000
19000000: global: x25=0x00000000
19000000: global: x26=0x00000000
19000000: global: x27=0x00000000
19000000: global: x28=0x00000000
19000000: global: x29=0x00000000
19000000: global: x30=0x00000000
19000000: global: x31=0x00000000
19000000: global: f0=0x3f800000
19000000: global: f1=0x41800000
19000000: global: f2=0x40800000
19000000: global: f3=0x40000000
19000000: global: f4=0x41000000
19000000: global: f5=0x00000000
19000000: global: f6=0x00000000
19000000: global: f7=0x00000000
19000000: global: f8=0x00000000
19000000: global: f9=0x00000000
19000000: global: f10=0x00000000
19000000: global: f11=0x00000000
19000000: global: f12=0x00000000
19000000: global: f13=0x00000000
19000000: global: f14=0x00000000
19000000: global: f15=0x00000000
19000000: global: f16=0x00000000
19000000: global: f17=0x00000000
19000000: global: f18=0x00000000
19000000: global: f19=0x00000000
19000000: global: f20=0x00000000
19000000: global: f21=0x00000000
19000000: global: f22=0x00000000
19000000: global: f23=0x00000000
19000000: global: f24=0x00000000
19000000: global: f25=0x00000000
19000000: global: f26=0x00000000
19000000: global: f27=0x00000000
19000000: global: f28=0x00000000
19000000: global: f29=0x00000000
19000000: global: f30=0x00000000
19000000: global: f31=0x00000000
19000000: system.cpu.execute: Log4GUI: execute: 19000000: 0: 100c0: fsgnj_s f11, f0, f0: 3
19000000: system.cpu.execute: Log4GUI: execute: 19000000: 0: 100bc: fsgnj_s f10, f0, f0: 3
19000000: system.cpu.decode: Log4GUI: decode: 19000000: 0: 100c4: addi x6, x0, 50
19000000: system.cpu.fetch1: Log4GUI: fetch1: 19000000: 0: 100c8: <assembly>
20000000: system.cpu.execute: Log4GUI: execute: 20000000: 0: 100c4: addi x6, x0, 50: 0
20000000: system.cpu.execute: Log4GUI: execute: 20000000: 0: 100bc: fsgnj_s f10, f0, f0: 3
20000000: system.cpu.execute: Log4GUI: execute: 20000000: 0: 100c0: fsgnj_s f11, f0, f0: 3
20000000: system.cpu.decode: Log4GUI: decode: 20000000: 0: 100c8: addi x7, x0, 0
20000000: system.cpu.fetch1: Log4GUI: fetch1: 20000000: 0: 100cc: <assembly>
21000000: system.cpu.memory: Log4GUI: memory: 21000000: 0: 100bc: fsgnj_s f10, f0, f0
21000000: system.cpu.execute: Log4GUI: execute: 21000000: 0: 100c0: fsgnj_s f11, f0, f0: 3
21000000: system.cpu.execute: Log4GUI: execute: 21000000: 1: 100c4: addi x6, x0, 50: 0
21000000: system.cpu.decode: Log4GUI: decode: 21000000: 1: 100c8: addi x7, x0, 0
21000000: system.cpu.fetch1: Log4GUI: fetch1: 21000000: 1: 100cc: <assembly>
22000000: system.cpu.writeback: Log4GUI: writeback: 22000000: 0: 100bc: fsgnj_s f10, f0, f0
22000000: system.cpu.writeback: REGISTERS
22000000: global: x0=0x00000000
22000000: global: x1=0x00000000
22000000: global: x2=0x7fffff90
22000000: global: x3=0x00000000
22000000: global: x4=0x00000000
22000000: global: x5=0x000110b4
22000000: global: x6=0x00000000
22000000: global: x7=0x00000000
22000000: global: x8=0x00000000
22000000: global: x9=0x00000000
22000000: global: x10=0x00000000
22000000: global: x11=0x00000000
22000000: global: x12=0x00000000
22000000: global: x13=0x00000000
22000000: global: x14=0x00000000
22000000: global: x15=0x00000000
22000000: global: x16=0x00000000
22000000: global: x17=0x00000000
22000000: global: x18=0x00000000
22000000: global: x19=0x00000000
22000000: global: x20=0x00000000
22000000: global: x21=0x00000000
22000000: global: x22=0x00000000
22000000: global: x23=0x00000000
22000000: global: x24=0x00000000
22000000: global: x25=0x00000000
22000000: global: x26=0x00000000
22000000: global: x27=0x00000000
22000000: global: x28=0x00000000
22000000: global: x29=0x00000000
22000000: global: x30=0x00000000
22000000: global: x31=0x00000000
22000000: global: f0=0x3f800000
22000000: global: f1=0x41800000
22000000: global: f2=0x40800000
22000000: global: f3=0x40000000
22000000: global: f4=0x41000000
22000000: global: f5=0x00000000
22000000: global: f6=0x00000000
22000000: global: f7=0x00000000
22000000: global: f8=0x00000000
22000000: global: f9=0x00000000
22000000: global: f10=0x3f800000
22000000: global: f11=0x00000000
22000000: global: f12=0x00000000
22000000: global: f13=0x00000000
22000000: global: f14=0x00000000
22000000: global: f15=0x00000000
22000000: global: f16=0x00000000
22000000: global: f17=0x00000000
22000000: global: f18=0x00000000
22000000: global: f19=0x00000000
22000000: global: f20=0x00000000
22000000: global: f21=0x00000000
22000000: global: f22=0x00000000
22000000: global: f23=0x00000000
22000000: global: f24=0x00000000
22000000: global: f25=0x00000000
22000000: global: f26=0x00000000
22000000: global: f27=0x00000000
22000000: global: f28=0x00000000
22000000: global: f29=0x00000000
22000000: global: f30=0x00000000
22000000: global: f31=0x00000000
22000000: system.cpu.memory: Log4GUI: memory: 22000000: 0: 100c0: fsgnj_s f11, f0, f0
22000000: system.cpu.decode: Log4GUI: decode: 22000000: 1: 100c8: addi x7, x0, 0
22000000: system.cpu.fetch1: Log4GUI: fetch1: 22000000: 1: 100cc: <assembly>
23000000: system.cpu.writeback: Log4GUI: writeback: 23000000: 0: 100c0: fsgnj_s f11, f0, f0
23000000: system.cpu.writeback: REGISTERS
23000000: global: x0=0x00000000
23000000: global: x1=0x00000000
23000000: global: x2=0x7fffff90
23000000: global: x3=0x00000000
23000000: global: x4=0x00000000
23000000: global: x5=0x000110b4
23000000: global: x6=0x00000000
23000000: global: x7=0x00000000
23000000: global: x8=0x00000000
23000000: global: x9=0x00000000
23000000: global: x10=0x00000000
23000000: global: x11=0x00000000
23000000: global: x12=0x00000000
23000000: global: x13=0x00000000
23000000: global: x14=0x00000000
23000000: global: x15=0x00000000
23000000: global: x16=0x00000000
23000000: global: x17=0x00000000
23000000: global: x18=0x00000000
23000000: global: x19=0x00000000
23000000: global: x20=0x00000000
23000000: global: x21=0x00000000
23000000: global: x22=0x00000000
23000000: global: x23=0x00000000
23000000: global: x24=0x00000000
23000000: global: x25=0x00000000
23000000: global: x26=0x00000000
23000000: global: x27=0x00000000
23000000: global: x28=0x00000000
23000000: global: x29=0x00000000
23000000: global: x30=0x00000000
23000000: global: x31=0x00000000
23000000: global: f0=0x3f800000
23000000: global: f1=0x41800000
23000000: global: f2=0x40800000
23000000: global: f3=0x40000000
23000000: global: f4=0x41000000
23000000: global: f5=0x00000000
23000000: global: f6=0x00000000
23000000: global: f7=0x00000000
23000000: global: f8=0x00000000
23000000: global: f9=0x00000000
23000000: global: f10=0x3f800000
23000000: global: f11=0x3f800000
23000000: global: f12=0x00000000
23000000: global: f13=0x00000000
23000000: global: f14=0x00000000
23000000: global: f15=0x00000000
23000000: global: f16=0x00000000
23000000: global: f17=0x00000000
23000000: global: f18=0x00000000
23000000: global: f19=0x00000000
23000000: global: f20=0x00000000
23000000: global: f21=0x00000000
23000000: global: f22=0x00000000
23000000: global: f23=0x00000000
23000000: global: f24=0x00000000
23000000: global: f25=0x00000000
23000000: global: f26=0x00000000
23000000: global: f27=0x00000000
23000000: global: f28=0x00000000
23000000: global: f29=0x00000000
23000000: global: f30=0x00000000
23000000: global: f31=0x00000000
23000000: system.cpu.memory: Log4GUI: memory: 23000000: 0: 100c4: addi x6, x0, 50
23000000: system.cpu.execute: Log4GUI: execute: 23000000: 0: 100c8: addi x7, x0, 0: 0
23000000: system.cpu.decode: Log4GUI: decode: 23000000: 0: 100cc: beq x7, x6, 84
23000000: system.cpu.fetch1: Log4GUI: fetch1: 23000000: 0: 100d0: <assembly>
24000000: system.cpu.writeback: Log4GUI: writeback: 24000000: 0: 100c4: addi x6, x0, 50
24000000: system.cpu.writeback: REGISTERS
24000000: global: x0=0x00000000
24000000: global: x1=0x00000000
24000000: global: x2=0x7fffff90
24000000: global: x3=0x00000000
24000000: global: x4=0x00000000
24000000: global: x5=0x000110b4
24000000: global: x6=0x00000032
24000000: global: x7=0x00000000
24000000: global: x8=0x00000000
24000000: global: x9=0x00000000
24000000: global: x10=0x00000000
24000000: global: x11=0x00000000
24000000: global: x12=0x00000000
24000000: global: x13=0x00000000
24000000: global: x14=0x00000000
24000000: global: x15=0x00000000
24000000: global: x16=0x00000000
24000000: global: x17=0x00000000
24000000: global: x18=0x00000000
24000000: global: x19=0x00000000
24000000: global: x20=0x00000000
24000000: global: x21=0x00000000
24000000: global: x22=0x00000000
24000000: global: x23=0x00000000
24000000: global: x24=0x00000000
24000000: global: x25=0x00000000
24000000: global: x26=0x00000000
24000000: global: x27=0x00000000
24000000: global: x28=0x00000000
24000000: global: x29=0x00000000
24000000: global: x30=0x00000000
24000000: global: x31=0x00000000
24000000: global: f0=0x3f800000
24000000: global: f1=0x41800000
24000000: global: f2=0x40800000
24000000: global: f3=0x40000000
24000000: global: f4=0x41000000
24000000: global: f5=0x00000000
24000000: global: f6=0x00000000
24000000: global: f7=0x00000000
24000000: global: f8=0x00000000
24000000: global: f9=0x00000000
24000000: global: f10=0x3f800000
24000000: global: f11=0x3f800000
24000000: global: f12=0x00000000
24000000: global: f13=0x00000000
24000000: global: f14=0x00000000
24000000: global: f15=0x00000000
24000000: global: f16=0x00000000
24000000: global: f17=0x00000000
24000000: global: f18=0x00000000
24000000: global: f19=0x00000000
24000000: global: f20=0x00000000
24000000: global: f21=0x00000000
24000000: global: f22=0x00000000
24000000: global: f23=0x00000000
24000000: global: f24=0x00000000
24000000: global: f25=0x00000000
24000000: global: f26=0x00000000
24000000: global: f27=0x00000000
24000000: global: f28=0x00000000
24000000: global: f29=0x00000000
24000000: global: f30=0x00000000
24000000: global: f31=0x00000000
24000000: system.cpu.memory: Log4GUI: memory: 24000000: 0: 100c8: addi x7, x0, 0
24000000: system.cpu.decode: Log4GUI: decode: 24000000: 1: 100cc: beq x7, x6, 84
24000000: system.cpu.fetch1: Log4GUI: fetch1: 24000000: 1: 100d0: <assembly>
25000000: system.cpu.writeback: Log4GUI: writeback: 25000000: 0: 100c8: addi x7, x0, 0
25000000: system.cpu.writeback: REGISTERS
25000000: global: x0=0x00000000
25000000: global: x1=0x00000000
25000000: global: x2=0x7fffff90
25000000: global: x3=0x00000000
25000000: global: x4=0x00000000
25000000: global: x5=0x000110b4
25000000: global: x6=0x00000032
25000000: global: x7=0x00000000
25000000: global: x8=0x00000000
25000000: global: x9=0x00000000
25000000: global: x10=0x00000000
25000000: global: x11=0x00000000
25000000: global: x12=0x00000000
25000000: global: x13=0x00000000
25000000: global: x14=0x00000000
25000000: global: x15=0x00000000
25000000: global: x16=0x00000000
25000000: global: x17=0x00000000
25000000: global: x18=0x00000000
25000000: global: x19=0x00000000
25000000: global: x20=0x00000000
25000000: global: x21=0x00000000
25000000: global: x22=0x00000000
25000000: global: x23=0x00000000
25000000: global: x24=0x00000000
25000000: global: x25=0x00000000
25000000: global: x26=0x00000000
25000000: global: x27=0x00000000
25000000: global: x28=0x00000000
25000000: global: x29=0x00000000
25000000: global: x30=0x00000000
25000000: global: x31=0x00000000
25000000: global: f0=0x3f800000
25000000: global: f1=0x41800000
25000000: global: f2=0x40800000
25000000: global: f3=0x40000000
25000000: global: f4=0x41000000
25000000: global: f5=0x00000000
25000000: global: f6=0x00000000
25000000: global: f7=0x00000000
25000000: global: f8=0x00000000
25000000: global: f9=0x00000000
25000000: global: f10=0x3f800000
25000000: global: f11=0x3f800000
25000000: global: f12=0x00000000
25000000: global: f13=0x00000000
25000000: global: f14=0x00000000
25000000: global: f15=0x00000000
25000000: global: f16=0x00000000
25000000: global: f17=0x00000000
25000000: global: f18=0x00000000
25000000: global: f19=0x00000000
25000000: global: f20=0x00000000
25000000: global: f21=0x00000000
25000000: global: f22=0x00000000
25000000: global: f23=0x00000000
25000000: global: f24=0x00000000
25000000: global: f25=0x00000000
25000000: global: f26=0x00000000
25000000: global: f27=0x00000000
25000000: global: f28=0x00000000
25000000: global: f29=0x00000000
25000000: global: f30=0x00000000
25000000: global: f31=0x00000000
25000000: system.cpu.execute: Log4GUI: execute: 25000000: 0: 100cc: beq x7, x6, 84: 0
25000000: system.cpu.decode: Log4GUI: decode: 25000000: 0: 100d0: fcvt_s_w f12, x7
25000000: system.cpu.fetch1: Log4GUI: fetch1: 25000000: 0: 100d4: <assembly>
26000000: system.cpu.memory: Log4GUI: memory: 26000000: 0: 100cc: beq x7, x6, 84
26000000: system.cpu.execute: Log4GUI: execute: 26000000: 0: 100d0: fcvt_s_w f12, x7: 3
26000000: system.cpu.decode: Log4GUI: decode: 26000000: 0: 100d4: fmul_s f13, f4, f12
26000000: system.cpu.fetch1: Log4GUI: fetch1: 26000000: 0: 100d8: <assembly>
27000000: system.cpu.writeback: Log4GUI: writeback: 27000000: 0: 100cc: beq x7, x6, 84
27000000: system.cpu.writeback: REGISTERS
27000000: global: x0=0x00000000
27000000: global: x1=0x00000000
27000000: global: x2=0x7fffff90
27000000: global: x3=0x00000000
27000000: global: x4=0x00000000
27000000: global: x5=0x000110b4
27000000: global: x6=0x00000032
27000000: global: x7=0x00000000
27000000: global: x8=0x00000000
27000000: global: x9=0x00000000
27000000: global: x10=0x00000000
27000000: global: x11=0x00000000
27000000: global: x12=0x00000000
27000000: global: x13=0x00000000
27000000: global: x14=0x00000000
27000000: global: x15=0x00000000
27000000: global: x16=0x00000000
27000000: global: x17=0x00000000
27000000: global: x18=0x00000000
27000000: global: x19=0x00000000
27000000: global: x20=0x00000000
27000000: global: x21=0x00000000
27000000: global: x22=0x00000000
27000000: global: x23=0x00000000
27000000: global: x24=0x00000000
27000000: global: x25=0x00000000
27000000: global: x26=0x00000000
27000000: global: x27=0x00000000
27000000: global: x28=0x00000000
27000000: global: x29=0x00000000
27000000: global: x30=0x00000000
27000000: global: x31=0x00000000
27000000: global: f0=0x3f800000
27000000: global: f1=0x41800000
27000000: global: f2=0x40800000
27000000: global: f3=0x40000000
27000000: global: f4=0x41000000
27000000: global: f5=0x00000000
27000000: global: f6=0x00000000
27000000: global: f7=0x00000000
27000000: global: f8=0x00000000
27000000: global: f9=0x00000000
27000000: global: f10=0x3f800000
27000000: global: f11=0x3f800000
27000000: global: f12=0x00000000
27000000: global: f13=0x00000000
27000000: global: f14=0x00000000
27000000: global: f15=0x00000000
27000000: global: f16=0x00000000
27000000: global: f17=0x00000000
27000000: global: f18=0x00000000
27000000: global: f19=0x00000000
27000000: global: f20=0x00000000
27000000: global: f21=0x00000000
27000000: global: f22=0x00000000
27000000: global: f23=0x00000000
27000000: global: f24=0x00000000
27000000: global: f25=0x00000000
27000000: global: f26=0x00000000
27000000: global: f27=0x00000000
27000000: global: f28=0x00000000
27000000: global: f29=0x00000000
27000000: global: f30=0x00000000
27000000: global: f31=0x00000000
27000000: system.cpu.execute: Log4GUI: execute: 27000000: 0: 100d0: fcvt_s_w f12, x7: 3
27000000: system.cpu.decode: Log4GUI: decode: 27000000: 1: 100d4: fmul_s f13, f4, f12
27000000: system.cpu.fetch1: Log4GUI: fetch1: 27000000: 1: 100d8: <assembly>
28000000: system.cpu.execute: Log4GUI: execute: 28000000: 0: 100d0: fcvt_s_w f12, x7: 3
28000000: system.cpu.decode: Log4GUI: decode: 28000000: 1: 100d4: fmul_s f13, f4, f12
28000000: system.cpu.fetch1: Log4GUI: fetch1: 28000000: 1: 100d8: <assembly>
29000000: system.cpu.memory: Log4GUI: memory: 29000000: 0: 100d0: fcvt_s_w f12, x7
29000000: system.cpu.execute: Log4GUI: execute: 29000000: 0: 100d4: fmul_s f13, f4, f12: 4
29000000: system.cpu.decode: Log4GUI: decode: 29000000: 0: 100d8: fadd_s f14, f13, f0
29000000: system.cpu.fetch1: Log4GUI: fetch1: 29000000: 0: 100dc: <assembly>
30000000: system.cpu.writeback: Log4GUI: writeback: 30000000: 0: 100d0: fcvt_s_w f12, x7
30000000: system.cpu.writeback: REGISTERS
30000000: global: x0=0x00000000
30000000: global: x1=0x00000000
30000000: global: x2=0x7fffff90
30000000: global: x3=0x00000000
30000000: global: x4=0x00000000
30000000: global: x5=0x000110b4
30000000: global: x6=0x00000032
30000000: global: x7=0x00000000
30000000: global: x8=0x00000000
30000000: global: x9=0x00000000
30000000: global: x10=0x00000000
30000000: global: x11=0x00000000
30000000: global: x12=0x00000000
30000000: global: x13=0x00000000
30000000: global: x14=0x00000000
30000000: global: x15=0x00000000
30000000: global: x16=0x00000000
30000000: global: x17=0x00000000
30000000: global: x18=0x00000000
30000000: global: x19=0x00000000
30000000: global: x20=0x00000000
30000000: global: x21=0x00000000
30000000: global: x22=0x00000000
30000000: global: x23=0x00000000
30000000: global: x24=0x00000000
30000000: global: x25=0x00000000
30000000: global: x26=0x00000000
30000000: global: x27=0x00000000
30000000: global: x28=0x00000000
30000000: global: x29=0x00000000
30000000: global: x30=0x00000000
30000000: global: x31=0x00000000
30000000: global: f0=0x3f800000
30000000: global: f1=0x41800000
30000000: global: f2=0x40800000
30000000: global: f3=0x40000000
30000000: global: f4=0x41000000
30000000: global: f5=0x00000000
30000000: global: f6=0x00000000
30000000: global: f7=0x00000000
30000000: global: f8=0x00000000
30000000: global: f9=0x00000000
30000000: global: f10=0x3f800000
30000000: global: f11=0x3f800000
30000000: global: f12=0x00000000
30000000: global: f13=0x00000000
30000000: global: f14=0x00000000
30000000: global: f15=0x00000000
30000000: global: f16=0x00000000
30000000: global: f17=0x00000000
30000000: global: f18=0x00000000
30000000: global: f19=0x00000000
30000000: global: f20=0x00000000
30000000: global: f21=0x00000000
30000000: global: f22=0x00000000
30000000: global: f23=0x00000000
30000000: global: f24=0x00000000
30000000: global: f25=0x00000000
30000000: global: f26=0x00000000
30000000: global: f27=0x00000000
30000000: global: f28=0x00000000
30000000: global: f29=0x00000000
30000000: global: f30=0x00000000
30000000: global: f31=0x00000000
30000000: system.cpu.execute: Log4GUI: execute: 30000000: 0: 100d4: fmul_s f13, f4, f12: 4
30000000: system.cpu.decode: Log4GUI: decode: 30000000: 1: 100d8: fadd_s f14, f13, f0
30000000: system.cpu.fetch1: Log4GUI: fetch1: 30000000: 1: 100dc: <assembly>
31000000: system.cpu.execute: Log4GUI: execute: 31000000: 0: 100d4: fmul_s f13, f4, f12: 4
31000000: system.cpu.decode: Log4GUI: decode: 31000000: 1: 100d8: fadd_s f14, f13, f0
31000000: system.cpu.fetch1: Log4GUI: fetch1: 31000000: 1: 100dc: <assembly>
32000000: system.cpu.execute: Log4GUI: execute: 32000000: 0: 100d4: fmul_s f13, f4, f12: 4
32000000: system.cpu.decode: Log4GUI: decode: 32000000: 1: 100d8: fadd_s f14, f13, f0
32000000: system.cpu.fetch1: Log4GUI: fetch1: 32000000: 1: 100dc: <assembly>
33000000: system.cpu.execute: Log4GUI: execute: 33000000: 0: 100d4: fmul_s f13, f4, f12: 4
33000000: system.cpu.decode: Log4GUI: decode: 33000000: 1: 100d8: fadd_s f14, f13, f0
33000000: system.cpu.fetch1: Log4GUI: fetch1: 33000000: 1: 100dc: <assembly>
34000000: system.cpu.execute: Log4GUI: execute: 34000000: 0: 100d4: fmul_s f13, f4, f12: 4
34000000: system.cpu.decode: Log4GUI: decode: 34000000: 1: 100d8: fadd_s f14, f13, f0
34000000: system.cpu.fetch1: Log4GUI: fetch1: 34000000: 1: 100dc: <assembly>
35000000: system.cpu.execute: Log4GUI: execute: 35000000: 0: 100d4: fmul_s f13, f4, f12: 4
35000000: system.cpu.decode: Log4GUI: decode: 35000000: 1: 100d8: fadd_s f14, f13, f0
35000000: system.cpu.fetch1: Log4GUI: fetch1: 35000000: 1: 100dc: <assembly>
36000000: system.cpu.memory: Log4GUI: memory: 36000000: 0: 100d4: fmul_s f13, f4, f12
36000000: system.cpu.execute: Log4GUI: execute: 36000000: 0: 100d8: fadd_s f14, f13, f0: 3
36000000: system.cpu.decode: Log4GUI: decode: 36000000: 0: 100dc: fdiv_s f15, f2, f14
36000000: system.cpu.fetch1: Log4GUI: fetch1: 36000000: 0: 100e0: <assembly>
37000000: system.cpu.writeback: Log4GUI: writeback: 37000000: 0: 100d4: fmul_s f13, f4, f12
37000000: system.cpu.writeback: REGISTERS
37000000: global: x0=0x00000000
37000000: global: x1=0x00000000
37000000: global: x2=0x7fffff90
37000000: global: x3=0x00000000
37000000: global: x4=0x00000000
37000000: global: x5=0x000110b4
37000000: global: x6=0x00000032
37000000: global: x7=0x00000000
37000000: global: x8=0x00000000
37000000: global: x9=0x00000000
37000000: global: x10=0x00000000
37000000: global: x11=0x00000000
37000000: global: x12=0x00000000
37000000: global: x13=0x00000000
37000000: global: x14=0x00000000
37000000: global: x15=0x00000000
37000000: global: x16=0x00000000
37000000: global: x17=0x00000000
37000000: global: x18=0x00000000
37000000: global: x19=0x00000000
37000000: global: x20=0x00000000
37000000: global: x21=0x00000000
37000000: global: x22=0x00000000
37000000: global: x23=0x00000000
37000000: global: x24=0x00000000
37000000: global: x25=0x00000000
37000000: global: x26=0x00000000
37000000: global: x27=0x00000000
37000000: global: x28=0x00000000
37000000: global: x29=0x00000000
37000000: global: x30=0x00000000
37000000: global: x31=0x00000000
37000000: global: f0=0x3f800000
37000000: global: f1=0x41800000
37000000: global: f2=0x40800000
37000000: global: f3=0x40000000
37000000: global: f4=0x41000000
37000000: global: f5=0x00000000
37000000: global: f6=0x00000000
37000000: global: f7=0x00000000
37000000: global: f8=0x00000000
37000000: global: f9=0x00000000
37000000: global: f10=0x3f800000
37000000: global: f11=0x3f800000
37000000: global: f12=0x00000000
37000000: global: f13=0x00000000
37000000: global: f14=0x00000000
37000000: global: f15=0x00000000
37000000: global: f16=0x00000000
37000000: global: f17=0x00000000
37000000: global: f18=0x00000000
37000000: global: f19=0x00000000
37000000: global: f20=0x00000000
37000000: global: f21=0x00000000
37000000: global: f22=0x00000000
37000000: global: f23=0x00000000
37000000: global: f24=0x00000000
37000000: global: f25=0x00000000
37000000: global: f26=0x00000000
37000000: global: f27=0x00000000
37000000: global: f28=0x00000000
37000000: global: f29=0x00000000
37000000: global: f30=0x00000000
37000000: global: f31=0x00000000
37000000: system.cpu.execute: Log4GUI: execute: 37000000: 0: 100d8: fadd_s f14, f13, f0: 3
37000000: system.cpu.decode: Log4GUI: decode: 37000000: 1: 100dc: fdiv_s f15, f2, f14
37000000: system.cpu.fetch1: Log4GUI: fetch1: 37000000: 1: 100e0: <assembly>
38000000: system.cpu.execute: Log4GUI: execute: 38000000: 0: 100d8: fadd_s f14, f13, f0: 3
38000000: system.cpu.decode: Log4GUI: decode: 38000000: 1: 100dc: fdiv_s f15, f2, f14
38000000: system.cpu.fetch1: Log4GUI: fetch1: 38000000: 1: 100e0: <assembly>
39000000: system.cpu.memory: Log4GUI: memory: 39000000: 0: 100d8: fadd_s f14, f13, f0
39000000: system.cpu.execute: Log4GUI: execute: 39000000: 0: 100dc: fdiv_s f15, f2, f14: 5
39000000: system.cpu.decode: Log4GUI: decode: 39000000: 0: 100e0: fadd_s f14, f13, f2
39000000: system.cpu.fetch1: Log4GUI: fetch1: 39000000: 0: 100e4: <assembly>
40000000: system.cpu.writeback: Log4GUI: writeback: 40000000: 0: 100d8: fadd_s f14, f13, f0
40000000: system.cpu.writeback: REGISTERS
40000000: global: x0=0x00000000
40000000: global: x1=0x00000000
40000000: global: x2=0x7fffff90
40000000: global: x3=0x00000000
40000000: global: x4=0x00000000
40000000: global: x5=0x000110b4
40000000: global: x6=0x00000032
40000000: global: x7=0x00000000
40000000: global: x8=0x00000000
40000000: global: x9=0x00000000
40000000: global: x10=0x00000000
40000000: global: x11=0x00000000
40000000: global: x12=0x00000000
40000000: global: x13=0x00000000
40000000: global: x14=0x00000000
40000000: global: x15=0x00000000
40000000: global: x16=0x00000000
40000000: global: x17=0x00000000
40000000: global: x18=0x00000000
40000000: global: x19=0x00000000
40000000: global: x20=0x00000000
40000000: global: x21=0x00000000
40000000: global: x22=0x00000000
40000000: global: x23=0x00000000
40000000: global: x24=0x00000000
40000000: global: x25=0x00000000
40000000: global: x26=0x00000000
40000000: global: x27=0x00000000
40000000: global: x28=0x00000000
40000000: global: x29=0x00000000
40000000: global: x30=0x00000000
40000000: global: x31=0x00000000
40000000: global: f0=0x3f800000
40000000: global: f1=0x41800000
40000000: global: f2=0x40800000
40000000: global: f3=0x40000000
40000000: global: f4=0x41000000
40000000: global: f5=0x00000000
40000000: global: f6=0x00000000
40000000: global: f7=0x00000000
40000000: global: f8=0x00000000
40000000: global: f9=0x00000000
40000000: global: f10=0x3f800000
40000000: global: f11=0x3f800000
40000000: global: f12=0x00000000
40000000: global: f13=0x00000000
40000000: global: f14=0x3f800000
40000000: global: f15=0x00000000
40000000: global: f16=0x00000000
40000000: global: f17=0x00000000
40000000: global: f18=0x00000000
40000000: global: f19=0x00000000
40000000: global: f20=0x00000000
40000000: global: f21=0x00000000
40000000: global: f22=0x00000000
40000000: global: f23=0x00000000
40000000: global: f24=0x00000000
40000000: global: f25=0x00000000
40000000: global: f26=0x00000000
40000000: global: f27=0x00000000
40000000: global: f28=0x00000000
40000000: global: f29=0x00000000
40000000: global: f30=0x00000000
40000000: global: f31=0x00000000
40000000: system.cpu.execute: Log4GUI: execute: 40000000: 0: 100e0: fadd_s f14, f13, f2: 3
40000000: system.cpu.execute: Log4GUI: execute: 40000000: 0: 100dc: fdiv_s f15, f2, f14: 5
40000000: system.cpu.decode: Log4GUI: decode: 40000000: 0: 100e4: fdiv_s f16, f3, f14
40000000: system.cpu.fetch1: Log4GUI: fetch1: 40000000: 0: 100e8: <assembly>
41000000: system.cpu.execute: Log4GUI: execute: 41000000: 0: 100e0: fadd_s f14, f13, f2: 3
41000000: system.cpu.execute: Log4GUI: execute: 41000000: 0: 100dc: fdiv_s f15, f2, f14: 5
41000000: system.cpu.decode: Log4GUI: decode: 41000000: 1: 100e4: fdiv_s f16, f3, f14
41000000: system.cpu.fetch1: Log4GUI: fetch1: 41000000: 1: 100e8: <assembly>
42000000: system.cpu.execute: Log4GUI: execute: 42000000: 0: 100e0: fadd_s f14, f13, f2: 3
42000000: system.cpu.execute: Log4GUI: execute: 42000000: 0: 100dc: fdiv_s f15, f2, f14: 5
42000000: system.cpu.decode: Log4GUI: decode: 42000000: 1: 100e4: fdiv_s f16, f3, f14
42000000: system.cpu.fetch1: Log4GUI: fetch1: 42000000: 1: 100e8: <assembly>
43000000: system.cpu.memory: Log4GUI: memory: 43000000: 0: 100e0: fadd_s f14, f13, f2
43000000: system.cpu.execute: Log4GUI: execute: 43000000: 0: 100dc: fdiv_s f15, f2, f14: 5
43000000: system.cpu.decode: Log4GUI: decode: 43000000: 1: 100e4: fdiv_s f16, f3, f14
43000000: system.cpu.fetch1: Log4GUI: fetch1: 43000000: 1: 100e8: <assembly>
44000000: system.cpu.writeback: Log4GUI: writeback: 44000000: 0: 100e0: fadd_s f14, f13, f2
44000000: system.cpu.writeback: REGISTERS
44000000: global: x0=0x00000000
44000000: global: x1=0x00000000
44000000: global: x2=0x7fffff90
44000000: global: x3=0x00000000
44000000: global: x4=0x00000000
44000000: global: x5=0x000110b4
44000000: global: x6=0x00000032
44000000: global: x7=0x00000000
44000000: global: x8=0x00000000
44000000: global: x9=0x00000000
44000000: global: x10=0x00000000
44000000: global: x11=0x00000000
44000000: global: x12=0x00000000
44000000: global: x13=0x00000000
44000000: global: x14=0x00000000
44000000: global: x15=0x00000000
44000000: global: x16=0x00000000
44000000: global: x17=0x00000000
44000000: global: x18=0x00000000
44000000: global: x19=0x00000000
44000000: global: x20=0x00000000
44000000: global: x21=0x00000000
44000000: global: x22=0x00000000
44000000: global: x23=0x00000000
44000000: global: x24=0x00000000
44000000: global: x25=0x00000000
44000000: global: x26=0x00000000
44000000: global: x27=0x00000000
44000000: global: x28=0x00000000
44000000: global: x29=0x00000000
44000000: global: x30=0x00000000
44000000: global: x31=0x00000000
44000000: global: f0=0x3f800000
44000000: global: f1=0x41800000
44000000: global: f2=0x40800000
44000000: global: f3=0x40000000
44000000: global: f4=0x41000000
44000000: global: f5=0x00000000
44000000: global: f6=0x00000000
44000000: global: f7=0x00000000
44000000: global: f8=0x00000000
44000000: global: f9=0x00000000
44000000: global: f10=0x3f800000
44000000: global: f11=0x3f800000
44000000: global: f12=0x00000000
44000000: global: f13=0x00000000
44000000: global: f14=0x40800000
44000000: global: f15=0x00000000
44000000: global: f16=0x00000000
44000000: global: f17=0x00000000
44000000: global: f18=0x00000000
44000000: global: f19=0x00000000
44000000: global: f20=0x00000000
44000000: global: f21=0x00000000
44000000: global: f22=0x00000000
44000000: global: f23=0x00000000
44000000: global: f24=0x00000000
44000000: global: f25=0x00000000
44000000: global: f26=0x00000000
44000000: global: f27=0x00000000
44000000: global: f28=0x00000000
44000000: global: f29=0x00000000
44000000: global: f30=0x00000000
44000000: global: f31=0x00000000
44000000: system.cpu.execute: Log4GUI: execute: 44000000: 0: 100dc: fdiv_s f15, f2, f14: 5
44000000: system.cpu.decode: Log4GUI: decode: 44000000: 1: 100e4: fdiv_s f16, f3, f14
44000000: system.cpu.fetch1: Log4GUI: fetch1: 44000000: 1: 100e8: <assembly>
45000000: system.cpu.execute: Log4GUI: execute: 45000000: 0: 100dc: fdiv_s f15, f2, f14: 5
45000000: system.cpu.decode: Log4GUI: decode: 45000000: 1: 100e4: fdiv_s f16, f3, f14
45000000: system.cpu.fetch1: Log4GUI: fetch1: 45000000: 1: 100e8: <assembly>
46000000: system.cpu.execute: Log4GUI: execute: 46000000: 0: 100dc: fdiv_s f15, f2, f14: 5
46000000: system.cpu.decode: Log4GUI: decode: 46000000: 1: 100e4: fdiv_s f16, f3, f14
46000000: system.cpu.fetch1: Log4GUI: fetch1: 46000000: 1: 100e8: <assembly>
47000000: system.cpu.execute: Log4GUI: execute: 47000000: 0: 100dc: fdiv_s f15, f2, f14: 5
47000000: system.cpu.decode: Log4GUI: decode: 47000000: 1: 100e4: fdiv_s f16, f3, f14
47000000: system.cpu.fetch1: Log4GUI: fetch1: 47000000: 1: 100e8: <assembly>
48000000: system.cpu.memory: Log4GUI: memory: 48000000: 0: 100dc: fdiv_s f15, f2, f14
48000000: system.cpu.execute: Log4GUI: execute: 48000000: 0: 100e4: fdiv_s f16, f3, f14: 5
48000000: system.cpu.decode: Log4GUI: decode: 48000000: 0: 100e8: fsub_s f15, f15, f16
48000000: system.cpu.fetch1: Log4GUI: fetch1: 48000000: 0: 100ec: <assembly>
49000000: system.cpu.writeback: Log4GUI: writeback: 49000000: 0: 100dc: fdiv_s f15, f2, f14
49000000: system.cpu.writeback: REGISTERS
49000000: global: x0=0x00000000
49000000: global: x1=0x00000000
49000000: global: x2=0x7fffff90
49000000: global: x3=0x00000000
49000000: global: x4=0x00000000
49000000: global: x5=0x000110b4
49000000: global: x6=0x00000032
49000000: global: x7=0x00000000
49000000: global: x8=0x00000000
49000000: global: x9=0x00000000
49000000: global: x10=0x00000000
49000000: global: x11=0x00000000
49000000: global: x12=0x00000000
49000000: global: x13=0x00000000
49000000: global: x14=0x00000000
49000000: global: x15=0x00000000
49000000: global: x16=0x00000000
49000000: global: x17=0x00000000
49000000: global: x18=0x00000000
49000000: global: x19=0x00000000
49000000: global: x20=0x00000000
49000000: global: x21=0x00000000
49000000: global: x22=0x00000000
49000000: global: x23=0x00000000
49000000: global: x24=0x00000000
49000000: global: x25=0x00000000
49000000: global: x26=0x00000000
49000000: global: x27=0x00000000
49000000: global: x28=0x00000000
49000000: global: x29=0x00000000
49000000: global: x30=0x00000000
49000000: global: x31=0x00000000
49000000: global: f0=0x3f800000
49000000: global: f1=0x41800000
49000000: global: f2=0x40800000
49000000: global: f3=0x40000000
49000000: global: f4=0x41000000
49000000: global: f5=0x00000000
49000000: global: f6=0x00000000
49000000: global: f7=0x00000000
49000000: global: f8=0x00000000
49000000: global: f9=0x00000000
49000000: global: f10=0x3f800000
49000000: global: f11=0x3f800000
49000000: global: f12=0x00000000
49000000: global: f13=0x00000000
49000000: global: f14=0x40800000
49000000: global: f15=0x3f800000
49000000: global: f16=0x00000000
49000000: global: f17=0x00000000
49000000: global: f18=0x00000000
49000000: global: f19=0x00000000
49000000: global: f20=0x00000000
49000000: global: f21=0x00000000
49000000: global: f22=0x00000000
49000000: global: f23=0x00000000
49000000: global: f24=0x00000000
49000000: global: f25=0x00000000
49000000: global: f26=0x00000000
49000000: global: f27=0x00000000
49000000: global: f28=0x00000000
49000000: global: f29=0x00000000
49000000: global: f30=0x00000000
49000000: global: f31=0x00000000
49000000: system.cpu.execute: Log4GUI: execute: 49000000: 0: 100e4: fdiv_s f16, f3, f14: 5
49000000: system.cpu.decode: Log4GUI: decode: 49000000: 1: 100e8: fsub_s f15, f15, f16
49000000: system.cpu.fetch1: Log4GUI: fetch1: 49000000: 1: 100ec: <assembly>
50000000: system.cpu.execute: Log4GUI: execute: 50000000: 0: 100e4: fdiv_s f16, f3, f14: 5
50000000: system.cpu.decode: Log4GUI: decode: 50000000: 1: 100e8: fsub_s f15, f15, f16
50000000: system.cpu.fetch1: Log4GUI: fetch1: 50000000: 1: 100ec: <assembly>
51000000: system.cpu.execute: Log4GUI: execute: 51000000: 0: 100e4: fdiv_s f16, f3, f14: 5
51000000: system.cpu.decode: Log4GUI: decode: 51000000: 1: 100e8: fsub_s f15, f15, f16
51000000: system.cpu.fetch1: Log4GUI: fetch1: 51000000: 1: 100ec: <assembly>
52000000: system.cpu.execute: Log4GUI: execute: 52000000: 0: 100e4: fdiv_s f16, f3, f14: 5
52000000: system.cpu.decode: Log4GUI: decode: 52000000: 1: 100e8: fsub_s f15, f15, f16
52000000: system.cpu.fetch1: Log4GUI: fetch1: 52000000: 1: 100ec: <assembly>
53000000: system.cpu.execute: Log4GUI: execute: 53000000: 0: 100e4: fdiv_s f16, f3, f14: 5
53000000: system.cpu.decode: Log4GUI: decode: 53000000: 1: 100e8: fsub_s f15, f15, f16
53000000: system.cpu.fetch1: Log4GUI: fetch1: 53000000: 1: 100ec: <assembly>
54000000: system.cpu.execute: Log4GUI: execute: 54000000: 0: 100e4: fdiv_s f16, f3, f14: 5
54000000: system.cpu.decode: Log4GUI: decode: 54000000: 1: 100e8: fsub_s f15, f15, f16
54000000: system.cpu.fetch1: Log4GUI: fetch1: 54000000: 1: 100ec: <assembly>
55000000: system.cpu.execute: Log4GUI: execute: 55000000: 0: 100e4: fdiv_s f16, f3, f14: 5
55000000: system.cpu.decode: Log4GUI: decode: 55000000: 1: 100e8: fsub_s f15, f15, f16
55000000: system.cpu.fetch1: Log4GUI: fetch1: 55000000: 1: 100ec: <assembly>
56000000: system.cpu.execute: Log4GUI: execute: 56000000: 0: 100e4: fdiv_s f16, f3, f14: 5
56000000: system.cpu.decode: Log4GUI: decode: 56000000: 1: 100e8: fsub_s f15, f15, f16
56000000: system.cpu.fetch1: Log4GUI: fetch1: 56000000: 1: 100ec: <assembly>
57000000: system.cpu.memory: Log4GUI: memory: 57000000: 0: 100e4: fdiv_s f16, f3, f14
57000000: system.cpu.execute: Log4GUI: execute: 57000000: 0: 100e8: fsub_s f15, f15, f16: 3
57000000: system.cpu.decode: Log4GUI: decode: 57000000: 0: 100ec: fadd_s f14, f13, f2
57000000: system.cpu.fetch1: Log4GUI: fetch1: 57000000: 0: 100f0: <assembly>
58000000: system.cpu.writeback: Log4GUI: writeback: 58000000: 0: 100e4: fdiv_s f16, f3, f14
58000000: system.cpu.writeback: REGISTERS
58000000: global: x0=0x00000000
58000000: global: x1=0x00000000
58000000: global: x2=0x7fffff90
58000000: global: x3=0x00000000
58000000: global: x4=0x00000000
58000000: global: x5=0x000110b4
58000000: global: x6=0x00000032
58000000: global: x7=0x00000000
58000000: global: x8=0x00000000
58000000: global: x9=0x00000000
58000000: global: x10=0x00000000
58000000: global: x11=0x00000000
58000000: global: x12=0x00000000
58000000: global: x13=0x00000000
58000000: global: x14=0x00000000
58000000: global: x15=0x00000000
58000000: global: x16=0x00000000
58000000: global: x17=0x00000000
58000000: global: x18=0x00000000
58000000: global: x19=0x00000000
58000000: global: x20=0x00000000
58000000: global: x21=0x00000000
58000000: global: x22=0x00000000
58000000: global: x23=0x00000000
58000000: global: x24=0x00000000
58000000: global: x25=0x00000000
58000000: global: x26=0x00000000
58000000: global: x27=0x00000000
58000000: global: x28=0x00000000
58000000: global: x29=0x00000000
58000000: global: x30=0x00000000
58000000: global: x31=0x00000000
58000000: global: f0=0x3f800000
58000000: global: f1=0x41800000
58000000: global: f2=0x40800000
58000000: global: f3=0x40000000
58000000: global: f4=0x41000000
58000000: global: f5=0x00000000
58000000: global: f6=0x00000000
58000000: global: f7=0x00000000
58000000: global: f8=0x00000000
58000000: global: f9=0x00000000
58000000: global: f10=0x3f800000
58000000: global: f11=0x3f800000
58000000: global: f12=0x00000000
58000000: global: f13=0x00000000
58000000: global: f14=0x40800000
58000000: global: f15=0x3f800000
58000000: global: f16=0x3f000000
58000000: global: f17=0x00000000
58000000: global: f18=0x00000000
58000000: global: f19=0x00000000
58000000: global: f20=0x00000000
58000000: global: f21=0x00000000
58000000: global: f22=0x00000000
58000000: global: f23=0x00000000
58000000: global: f24=0x00000000
58000000: global: f25=0x00000000
58000000: global: f26=0x00000000
58000000: global: f27=0x00000000
58000000: global: f28=0x00000000
58000000: global: f29=0x00000000
58000000: global: f30=0x00000000
58000000: global: f31=0x00000000
58000000: system.cpu.execute: Log4GUI: execute: 58000000: 0: 100ec: fadd_s f14, f13, f2: 3
58000000: system.cpu.execute: Log4GUI: execute: 58000000: 0: 100e8: fsub_s f15, f15, f16: 3
58000000: system.cpu.decode: Log4GUI: decode: 58000000: 0: 100f0: fadd_s f14, f14, f0
58000000: system.cpu.fetch1: Log4GUI: fetch1: 58000000: 0: 100f4: <assembly>
59000000: system.cpu.execute: Log4GUI: execute: 59000000: 0: 100e8: fsub_s f15, f15, f16: 3
59000000: system.cpu.execute: Log4GUI: execute: 59000000: 0: 100ec: fadd_s f14, f13, f2: 3
59000000: system.cpu.decode: Log4GUI: decode: 59000000: 1: 100f0: fadd_s f14, f14, f0
59000000: system.cpu.fetch1: Log4GUI: fetch1: 59000000: 1: 100f4: <assembly>
60000000: system.cpu.memory: Log4GUI: memory: 60000000: 0: 100e8: fsub_s f15, f15, f16
60000000: system.cpu.execute: Log4GUI: execute: 60000000: 0: 100ec: fadd_s f14, f13, f2: 3
60000000: system.cpu.decode: Log4GUI: decode: 60000000: 1: 100f0: fadd_s f14, f14, f0
60000000: system.cpu.fetch1: Log4GUI: fetch1: 60000000: 1: 100f4: <assembly>
61000000: system.cpu.writeback: Log4GUI: writeback: 61000000: 0: 100e8: fsub_s f15, f15, f16
61000000: system.cpu.writeback: REGISTERS
61000000: global: x0=0x00000000
61000000: global: x1=0x00000000
61000000: global: x2=0x7fffff90
61000000: global: x3=0x00000000
61000000: global: x4=0x00000000
61000000: global: x5=0x000110b4
61000000: global: x6=0x00000032
61000000: global: x7=0x00000000
61000000: global: x8=0x00000000
61000000: global: x9=0x00000000
61000000: global: x10=0x00000000
61000000: global: x11=0x00000000
61000000: global: x12=0x00000000
61000000: global: x13=0x00000000
61000000: global: x14=0x00000000
61000000: global: x15=0x00000000
61000000: global: x16=0x00000000
61000000: global: x17=0x00000000
61000000: global: x18=0x00000000
61000000: global: x19=0x00000000
61000000: global: x20=0x00000000
61000000: global: x21=0x00000000
61000000: global: x22=0x00000000
61000000: global: x23=0x00000000
61000000: global: x24=0x00000000
61000000: global: x25=0x00000000
61000000: global: x26=0x00000000
61000000: global: x27=0x00000000
61000000: global: x28=0x00000000
61000000: global: x29=0x00000000
61000000: global: x30=0x00000000
61000000: global: x31=0x00000000
61000000: global: f0=0x3f800000
61000000: global: f1=0x41800000
61000000: global: f2=0x40800000
61000000: global: f3=0x40000000
61000000: global: f4=0x41000000
61000000: global: f5=0x00000000
61000000: global: f6=0x00000000
61000000: global: f7=0x00000000
61000000: global: f8=0x00000000
61000000: global: f9=0x00000000
61000000: global: f10=0x3f800000
61000000: global: f11=0x3f800000
61000000: global: f12=0x00000000
61000000: global: f13=0x00000000
61000000: global: f14=0x40800000
61000000: global: f15=0x3f000000
61000000: global: f16=0x3f000000
61000000: global: f17=0x00000000
61000000: global: f18=0x00000000
61000000: global: f19=0x00000000
61000000: global: f20=0x00000000
61000000: global: f21=0x00000000
61000000: global: f22=0x00000000
61000000: global: f23=0x00000000
61000000: global: f24=0x00000000
61000000: global: f25=0x00000000
61000000: global: f26=0x00000000
61000000: global: f27=0x00000000
61000000: global: f28=0x00000000
61000000: global: f29=0x00000000
61000000: global: f30=0x00000000
61000000: global: f31=0x00000000
61000000: system.cpu.memory: Log4GUI: memory: 61000000: 0: 100ec: fadd_s f14, f13, f2
61000000: system.cpu.execute: Log4GUI: execute: 61000000: 0: 100f0: fadd_s f14, f14, f0: 3
61000000: system.cpu.decode: Log4GUI: decode: 61000000: 0: 100f4: fdiv_s f16, f0, f14
61000000: system.cpu.fetch1: Log4GUI: fetch1: 61000000: 0: 100f8: <assembly>
62000000: system.cpu.writeback: Log4GUI: writeback: 62000000: 0: 100ec: fadd_s f14, f13, f2
62000000: system.cpu.writeback: REGISTERS
62000000: global: x0=0x00000000
62000000: global: x1=0x00000000
62000000: global: x2=0x7fffff90
62000000: global: x3=0x00000000
62000000: global: x4=0x00000000
62000000: global: x5=0x000110b4
62000000: global: x6=0x00000032
62000000: global: x7=0x00000000
62000000: global: x8=0x00000000
62000000: global: x9=0x00000000
62000000: global: x10=0x00000000
62000000: global: x11=0x00000000
62000000: global: x12=0x00000000
62000000: global: x13=0x00000000
62000000: global: x14=0x00000000
62000000: global: x15=0x00000000
62000000: global: x16=0x00000000
62000000: global: x17=0x00000000
62000000: global: x18=0x00000000
62000000: global: x19=0x00000000
62000000: global: x20=0x00000000
62000000: global: x21=0x00000000
62000000: global: x22=0x00000000
62000000: global: x23=0x00000000
62000000: global: x24=0x00000000
62000000: global: x25=0x00000000
62000000: global: x26=0x00000000
62000000: global: x27=0x00000000
62000000: global: x28=0x00000000
62000000: global: x29=0x00000000
62000000: global: x30=0x00000000
62000000: global: x31=0x00000000
62000000: global: f0=0x3f800000
62000000: global: f1=0x41800000
62000000: global: f2=0x40800000
62000000: global: f3=0x40000000
62000000: global: f4=0x41000000
62000000: global: f5=0x00000000
62000000: global: f6=0x00000000
62000000: global: f7=0x00000000
62000000: global: f8=0x00000000
62000000: global: f9=0x00000000
62000000: global: f10=0x3f800000
62000000: global: f11=0x3f800000
62000000: global: f12=0x00000000
62000000: global: f13=0x00000000
62000000: global: f14=0x40800000
62000000: global: f15=0x3f000000
62000000: global: f16=0x3f000000
62000000: global: f17=0x00000000
62000000: global: f18=0x00000000
62000000: global: f19=0x00000000
62000000: global: f20=0x00000000
62000000: global: f21=0x00000000
62000000: global: f22=0x00000000
62000000: global: f23=0x00000000
62000000: global: f24=0x00000000
62000000: global: f25=0x00000000
62000000: global: f26=0x00000000
62000000: global: f27=0x00000000
62000000: global: f28=0x00000000
62000000: global: f29=0x00000000
62000000: global: f30=0x00000000
62000000: global: f31=0x00000000
62000000: system.cpu.execute: Log4GUI: execute: 62000000: 0: 100f0: fadd_s f14, f14, f0: 3
62000000: system.cpu.decode: Log4GUI: decode: 62000000: 1: 100f4: fdiv_s f16, f0, f14
62000000: system.cpu.fetch1: Log4GUI: fetch1: 62000000: 1: 100f8: <assembly>
63000000: system.cpu.execute: Log4GUI: execute: 63000000: 0: 100f0: fadd_s f14, f14, f0: 3
63000000: system.cpu.decode: Log4GUI: decode: 63000000: 1: 100f4: fdiv_s f16, f0, f14
63000000: system.cpu.fetch1: Log4GUI: fetch1: 63000000: 1: 100f8: <assembly>
64000000: system.cpu.memory: Log4GUI: memory: 64000000: 0: 100f0: fadd_s f14, f14, f0
64000000: system.cpu.execute: Log4GUI: execute: 64000000: 0: 100f4: fdiv_s f16, f0, f14: 5
64000000: system.cpu.decode: Log4GUI: decode: 64000000: 0: 100f8: fsub_s f15, f15, f16
64000000: system.cpu.fetch1: Log4GUI: fetch1: 64000000: 0: 100fc: <assembly>
65000000: system.cpu.writeback: Log4GUI: writeback: 65000000: 0: 100f0: fadd_s f14, f14, f0
65000000: system.cpu.writeback: REGISTERS
65000000: global: x0=0x00000000
65000000: global: x1=0x00000000
65000000: global: x2=0x7fffff90
65000000: global: x3=0x00000000
65000000: global: x4=0x00000000
65000000: global: x5=0x000110b4
65000000: global: x6=0x00000032
65000000: global: x7=0x00000000
65000000: global: x8=0x00000000
65000000: global: x9=0x00000000
65000000: global: x10=0x00000000
65000000: global: x11=0x00000000
65000000: global: x12=0x00000000
65000000: global: x13=0x00000000
65000000: global: x14=0x00000000
65000000: global: x15=0x00000000
65000000: global: x16=0x00000000
65000000: global: x17=0x00000000
65000000: global: x18=0x00000000
65000000: global: x19=0x00000000
65000000: global: x20=0x00000000
65000000: global: x21=0x00000000
65000000: global: x22=0x00000000
65000000: global: x23=0x00000000
65000000: global: x24=0x00000000
65000000: global: x25=0x00000000
65000000: global: x26=0x00000000
65000000: global: x27=0x00000000
65000000: global: x28=0x00000000
65000000: global: x29=0x00000000
65000000: global: x30=0x00000000
65000000: global: x31=0x00000000
65000000: global: f0=0x3f800000
65000000: global: f1=0x41800000
65000000: global: f2=0x40800000
65000000: global: f3=0x40000000
65000000: global: f4=0x41000000
65000000: global: f5=0x00000000
65000000: global: f6=0x00000000
65000000: global: f7=0x00000000
65000000: global: f8=0x00000000
65000000: global: f9=0x00000000
65000000: global: f10=0x3f800000
65000000: global: f11=0x3f800000
65000000: global: f12=0x00000000
65000000: global: f13=0x00000000
65000000: global: f14=0x40a00000
65000000: global: f15=0x3f000000
65000000: global: f16=0x3f000000
65000000: global: f17=0x00000000
65000000: global: f18=0x00000000
65000000: global: f19=0x00000000
65000000: global: f20=0x00000000
65000000: global: f21=0x00000000
65000000: global: f22=0x00000000
65000000: global: f23=0x00000000
65000000: global: f24=0x00000000
65000000: global: f25=0x00000000
65000000: global: f26=0x00000000
65000000: global: f27=0x00000000
65000000: global: f28=0x00000000
65000000: global: f29=0x00000000
65000000: global: f30=0x00000000
65000000: global: f31=0x00000000
65000000: system.cpu.execute: Log4GUI: execute: 65000000: 0: 100f4: fdiv_s f16, f0, f14: 5
65000000: system.cpu.decode: Log4GUI: decode: 65000000: 1: 100f8: fsub_s f15, f15, f16
65000000: system.cpu.fetch1: Log4GUI: fetch1: 65000000: 1: 100fc: <assembly>
66000000: system.cpu.execute: Log4GUI: execute: 66000000: 0: 100f4: fdiv_s f16, f0, f14: 5
66000000: system.cpu.decode: Log4GUI: decode: 66000000: 1: 100f8: fsub_s f15, f15, f16
66000000: system.cpu.fetch1: Log4GUI: fetch1: 66000000: 1: 100fc: <assembly>
67000000: system.cpu.execute: Log4GUI: execute: 67000000: 0: 100f4: fdiv_s f16, f0, f14: 5
67000000: system.cpu.decode: Log4GUI: decode: 67000000: 1: 100f8: fsub_s f15, f15, f16
67000000: system.cpu.fetch1: Log4GUI: fetch1: 67000000: 1: 100fc: <assembly>
68000000: system.cpu.execute: Log4GUI: execute: 68000000: 0: 100f4: fdiv_s f16, f0, f14: 5
68000000: system.cpu.decode: Log4GUI: decode: 68000000: 1: 100f8: fsub_s f15, f15, f16
68000000: system.cpu.fetch1: Log4GUI: fetch1: 68000000: 1: 100fc: <assembly>
69000000: system.cpu.execute: Log4GUI: execute: 69000000: 0: 100f4: fdiv_s f16, f0, f14: 5
69000000: system.cpu.decode: Log4GUI: decode: 69000000: 1: 100f8: fsub_s f15, f15, f16
69000000: system.cpu.fetch1: Log4GUI: fetch1: 69000000: 1: 100fc: <assembly>
70000000: system.cpu.execute: Log4GUI: execute: 70000000: 0: 100f4: fdiv_s f16, f0, f14: 5
70000000: system.cpu.decode: Log4GUI: decode: 70000000: 1: 100f8: fsub_s f15, f15, f16
70000000: system.cpu.fetch1: Log4GUI: fetch1: 70000000: 1: 100fc: <assembly>
71000000: system.cpu.execute: Log4GUI: execute: 71000000: 0: 100f4: fdiv_s f16, f0, f14: 5
71000000: system.cpu.decode: Log4GUI: decode: 71000000: 1: 100f8: fsub_s f15, f15, f16
71000000: system.cpu.fetch1: Log4GUI: fetch1: 71000000: 1: 100fc: <assembly>
72000000: system.cpu.execute: Log4GUI: execute: 72000000: 0: 100f4: fdiv_s f16, f0, f14: 5
72000000: system.cpu.decode: Log4GUI: decode: 72000000: 1: 100f8: fsub_s f15, f15, f16
72000000: system.cpu.fetch1: Log4GUI: fetch1: 72000000: 1: 100fc: <assembly>
73000000: system.cpu.memory: Log4GUI: memory: 73000000: 0: 100f4: fdiv_s f16, f0, f14
73000000: system.cpu.execute: Log4GUI: execute: 73000000: 0: 100f8: fsub_s f15, f15, f16: 3
73000000: system.cpu.decode: Log4GUI: decode: 73000000: 0: 100fc: fadd_s f14, f13, f2
73000000: system.cpu.fetch1: Log4GUI: fetch1: 73000000: 0: 10100: <assembly>
74000000: system.cpu.writeback: Log4GUI: writeback: 74000000: 0: 100f4: fdiv_s f16, f0, f14
74000000: system.cpu.writeback: REGISTERS
74000000: global: x0=0x00000000
74000000: global: x1=0x00000000
74000000: global: x2=0x7fffff90
74000000: global: x3=0x00000000
74000000: global: x4=0x00000000
74000000: global: x5=0x000110b4
74000000: global: x6=0x00000032
74000000: global: x7=0x00000000
74000000: global: x8=0x00000000
74000000: global: x9=0x00000000
74000000: global: x10=0x00000000
74000000: global: x11=0x00000000
74000000: global: x12=0x00000000
74000000: global: x13=0x00000000
74000000: global: x14=0x00000000
74000000: global: x15=0x00000000
74000000: global: x16=0x00000000
74000000: global: x17=0x00000000
74000000: global: x18=0x00000000
74000000: global: x19=0x00000000
74000000: global: x20=0x00000000
74000000: global: x21=0x00000000
74000000: global: x22=0x00000000
74000000: global: x23=0x00000000
74000000: global: x24=0x00000000
74000000: global: x25=0x00000000
74000000: global: x26=0x00000000
74000000: global: x27=0x00000000
74000000: global: x28=0x00000000
74000000: global: x29=0x00000000
74000000: global: x30=0x00000000
74000000: global: x31=0x00000000
74000000: global: f0=0x3f800000
74000000: global: f1=0x41800000
74000000: global: f2=0x40800000
74000000: global: f3=0x40000000
74000000: global: f4=0x41000000
74000000: global: f5=0x00000000
74000000: global: f6=0x00000000
74000000: global: f7=0x00000000
74000000: global: f8=0x00000000
74000000: global: f9=0x00000000
74000000: global: f10=0x3f800000
74000000: global: f11=0x3f800000
74000000: global: f12=0x00000000
74000000: global: f13=0x00000000
74000000: global: f14=0x40a00000
74000000: global: f15=0x3f000000
74000000: global: f16=0x3e4ccccd
74000000: global: f17=0x00000000
74000000: global: f18=0x00000000
74000000: global: f19=0x00000000
74000000: global: f20=0x00000000
74000000: global: f21=0x00000000
74000000: global: f22=0x00000000
74000000: global: f23=0x00000000
74000000: global: f24=0x00000000
74000000: global: f25=0x00000000
74000000: global: f26=0x00000000
74000000: global: f27=0x00000000
74000000: global: f28=0x00000000
74000000: global: f29=0x00000000
74000000: global: f30=0x00000000
74000000: global: f31=0x00000000
74000000: system.cpu.execute: Log4GUI: execute: 74000000: 0: 100fc: fadd_s f14, f13, f2: 3
74000000: system.cpu.execute: Log4GUI: execute: 74000000: 0: 100f8: fsub_s f15, f15, f16: 3
74000000: system.cpu.decode: Log4GUI: decode: 74000000: 0: 10100: fadd_s f14, f14, f3
74000000: system.cpu.fetch1: Log4GUI: fetch1: 74000000: 0: 10104: <assembly>
75000000: system.cpu.execute: Log4GUI: execute: 75000000: 0: 100f8: fsub_s f15, f15, f16: 3
75000000: system.cpu.execute: Log4GUI: execute: 75000000: 0: 100fc: fadd_s f14, f13, f2: 3
75000000: system.cpu.decode: Log4GUI: decode: 75000000: 1: 10100: fadd_s f14, f14, f3
75000000: system.cpu.fetch1: Log4GUI: fetch1: 75000000: 1: 10104: <assembly>
76000000: system.cpu.memory: Log4GUI: memory: 76000000: 0: 100f8: fsub_s f15, f15, f16
76000000: system.cpu.execute: Log4GUI: execute: 76000000: 0: 100fc: fadd_s f14, f13, f2: 3
76000000: system.cpu.decode: Log4GUI: decode: 76000000: 1: 10100: fadd_s f14, f14, f3
76000000: system.cpu.fetch1: Log4GUI: fetch1: 76000000: 1: 10104: <assembly>
77000000: system.cpu.writeback: Log4GUI: writeback: 77000000: 0: 100f8: fsub_s f15, f15, f16
77000000: system.cpu.writeback: REGISTERS
77000000: global: x0=0x00000000
77000000: global: x1=0x00000000
77000000: global: x2=0x7fffff90
77000000: global: x3=0x00000000
77000000: global: x4=0x00000000
77000000: global: x5=0x000110b4
77000000: global: x6=0x00000032
77000000: global: x7=0x00000000
77000000: global: x8=0x00000000
77000000: global: x9=0x00000000
77000000: global: x10=0x00000000
77000000: global: x11=0x00000000
77000000: global: x12=0x00000000
77000000: global: x13=0x00000000
77000000: global: x14=0x00000000
77000000: global: x15=0x00000000
77000000: global: x16=0x00000000
77000000: global: x17=0x00000000
77000000: global: x18=0x00000000
77000000: global: x19=0x00000000
77000000: global: x20=0x00000000
77000000: global: x21=0x00000000
77000000: global: x22=0x00000000
77000000: global: x23=0x00000000
77000000: global: x24=0x00000000
77000000: global: x25=0x00000000
77000000: global: x26=0x00000000
77000000: global: x27=0x00000000
77000000: global: x28=0x00000000
77000000: global: x29=0x00000000
77000000: global: x30=0x00000000
77000000: global: x31=0x00000000
77000000: global: f0=0x3f800000
77000000: global: f1=0x41800000
77000000: global: f2=0x40800000
77000000: global: f3=0x40000000
77000000: global: f4=0x41000000
77000000: global: f5=0x00000000
77000000: global: f6=0x00000000
77000000: global: f7=0x00000000
77000000: global: f8=0x00000000
77000000: global: f9=0x00000000
77000000: global: f10=0x3f800000
77000000: global: f11=0x3f800000
77000000: global: f12=0x00000000
77000000: global: f13=0x00000000
77000000: global: f14=0x40a00000
77000000: global: f15=0x3e99999a
77000000: global: f16=0x3e4ccccd
77000000: global: f17=0x00000000
77000000: global: f18=0x00000000
77000000: global: f19=0x00000000
77000000: global: f20=0x00000000
77000000: global: f21=0x00000000
77000000: global: f22=0x00000000
77000000: global: f23=0x00000000
77000000: global: f24=0x00000000
77000000: global: f25=0x00000000
77000000: global: f26=0x00000000
77000000: global: f27=0x00000000
77000000: global: f28=0x00000000
77000000: global: f29=0x00000000
77000000: global: f30=0x00000000
77000000: global: f31=0x00000000
77000000: system.cpu.memory: Log4GUI: memory: 77000000: 0: 100fc: fadd_s f14, f13, f2
77000000: system.cpu.execute: Log4GUI: execute: 77000000: 0: 10100: fadd_s f14, f14, f3: 3
77000000: system.cpu.decode: Log4GUI: decode: 77000000: 0: 10104: fdiv_s f16, f0, f14
77000000: system.cpu.fetch1: Log4GUI: fetch1: 77000000: 0: 10108: <assembly>
78000000: system.cpu.writeback: Log4GUI: writeback: 78000000: 0: 100fc: fadd_s f14, f13, f2
[...]
4021000000: system.cpu.execute: Log4GUI: execute: 4021000000: 0: 10114: fdiv_s f11, f11, f1: 5
4021000000: system.cpu.decode: Log4GUI: decode: 4021000000: 0: 1011c: jal x0, -80
4021000000: system.cpu.fetch1: Log4GUI: fetch1: 4021000000: 0: 10120: <assembly>
4022000000: system.cpu.memory: Log4GUI: memory: 4022000000: 0: 10110: fadd_s f10, f10, f15
4022000000: system.cpu.execute: Log4GUI: execute: 4022000000: 0: 10114: fdiv_s f11, f11, f1: 5
4022000000: system.cpu.decode: Log4GUI: decode: 4022000000: 1: 1011c: jal x0, -80
4022000000: system.cpu.fetch1: Log4GUI: fetch1: 4022000000: 1: 10120: <assembly>
4023000000: system.cpu.writeback: Log4GUI: writeback: 4023000000: 0: 10110: fadd_s f10, f10, f15
4023000000: system.cpu.writeback: REGISTERS
4023000000: global: x0=0x00000000
4023000000: global: x1=0x00000000
4023000000: global: x2=0x7fffff90
4023000000: global: x3=0x00000000
4023000000: global: x4=0x00000000
4023000000: global: x5=0x000110b4
4023000000: global: x6=0x00000032
4023000000: global: x7=0x00000031
4023000000: global: x8=0x00000000
4023000000: global: x9=0x00000000
4023000000: global: x10=0x00000000
4023000000: global: x11=0x00000000
4023000000: global: x12=0x00000000
4023000000: global: x13=0x00000000
4023000000: global: x14=0x00000000
4023000000: global: x15=0x00000000
4023000000: global: x16=0x00000000
4023000000: global: x17=0x00000000
4023000000: global: x18=0x00000000
4023000000: global: x19=0x00000000
4023000000: global: x20=0x00000000
4023000000: global: x21=0x00000000
4023000000: global: x22=0x00000000
4023000000: global: x23=0x00000000
4023000000: global: x24=0x00000000
4023000000: global: x25=0x00000000
4023000000: global: x26=0x00000000
4023000000: global: x27=0x00000000
4023000000: global: x28=0x00000000
4023000000: global: x29=0x00000000
4023000000: global: x30=0x00000000
4023000000: global: x31=0x00000000
4023000000: global: f0=0x3f800000
4023000000: global: f1=0x41800000
4023000000: global: f2=0x40800000
4023000000: global: f3=0x40000000
4023000000: global: f4=0x41000000
4023000000: global: f5=0x00000000
4023000000: global: f6=0x00000000
4023000000: global: f7=0x00000000
4023000000: global: f8=0x00000000
4023000000: global: f9=0x00000000
4023000000: global: f10=0x3f91377d
4023000000: global: f11=0x00000000
4023000000: global: f12=0x42440000
4023000000: global: f13=0x43c40000
4023000000: global: f14=0x43c70000
4023000000: global: f15=0x00000000
4023000000: global: f16=0x3b24a9cf
4023000000: global: f17=0x00000000
4023000000: global: f18=0x00000000
4023000000: global: f19=0x00000000
4023000000: global: f20=0x00000000
4023000000: global: f21=0x00000000
4023000000: global: f22=0x00000000
4023000000: global: f23=0x00000000
4023000000: global: f24=0x00000000
4023000000: global: f25=0x00000000
4023000000: global: f26=0x00000000
4023000000: global: f27=0x00000000
4023000000: global: f28=0x00000000
4023000000: global: f29=0x00000000
4023000000: global: f30=0x00000000
4023000000: global: f31=0x00000000
4023000000: system.cpu.memory: Log4GUI: memory: 4023000000: 0: 10118: addi x7, x7, 1
4023000000: system.cpu.execute: Log4GUI: execute: 4023000000: 0: 1011c: jal x0, -80: 0
4023000000: system.cpu.execute: Log4GUI: execute: 4023000000: 0: 10114: fdiv_s f11, f11, f1: 5
4023000000: system.cpu.fetch1: Log4GUI: fetch1: 4023000000: 0: 100cc: <assembly>
4024000000: system.cpu.writeback: Log4GUI: writeback: 4024000000: 0: 10118: addi x7, x7, 1
4024000000: system.cpu.writeback: REGISTERS
4024000000: global: x0=0x00000000
4024000000: global: x1=0x00000000
4024000000: global: x2=0x7fffff90
4024000000: global: x3=0x00000000
4024000000: global: x4=0x00000000
4024000000: global: x5=0x000110b4
4024000000: global: x6=0x00000032
4024000000: global: x7=0x00000032
4024000000: global: x8=0x00000000
4024000000: global: x9=0x00000000
4024000000: global: x10=0x00000000
4024000000: global: x11=0x00000000
4024000000: global: x12=0x00000000
4024000000: global: x13=0x00000000
4024000000: global: x14=0x00000000
4024000000: global: x15=0x00000000
4024000000: global: x16=0x00000000
4024000000: global: x17=0x00000000
4024000000: global: x18=0x00000000
4024000000: global: x19=0x00000000
4024000000: global: x20=0x00000000
4024000000: global: x21=0x00000000
4024000000: global: x22=0x00000000
4024000000: global: x23=0x00000000
4024000000: global: x24=0x00000000
4024000000: global: x25=0x00000000
4024000000: global: x26=0x00000000
4024000000: global: x27=0x00000000
4024000000: global: x28=0x00000000
4024000000: global: x29=0x00000000
4024000000: global: x30=0x00000000
4024000000: global: x31=0x00000000
4024000000: global: f0=0x3f800000
4024000000: global: f1=0x41800000
4024000000: global: f2=0x40800000
4024000000: global: f3=0x40000000
4024000000: global: f4=0x41000000
4024000000: global: f5=0x00000000
4024000000: global: f6=0x00000000
4024000000: global: f7=0x00000000
4024000000: global: f8=0x00000000
4024000000: global: f9=0x00000000
4024000000: global: f10=0x3f91377d
4024000000: global: f11=0x00000000
4024000000: global: f12=0x42440000
4024000000: global: f13=0x43c40000
4024000000: global: f14=0x43c70000
4024000000: global: f15=0x00000000
4024000000: global: f16=0x3b24a9cf
4024000000: global: f17=0x00000000
4024000000: global: f18=0x00000000
4024000000: global: f19=0x00000000
4024000000: global: f20=0x00000000
4024000000: global: f21=0x00000000
4024000000: global: f22=0x00000000
4024000000: global: f23=0x00000000
4024000000: global: f24=0x00000000
4024000000: global: f25=0x00000000
4024000000: global: f26=0x00000000
4024000000: global: f27=0x00000000
4024000000: global: f28=0x00000000
4024000000: global: f29=0x00000000
4024000000: global: f30=0x00000000
4024000000: global: f31=0x00000000
4024000000: system.cpu.memory: Log4GUI: memory: 4024000000: 0: 1011c: jal x0, -80
4024000000: system.cpu.execute: Log4GUI: execute: 4024000000: 0: 10114: fdiv_s f11, f11, f1: 5
4024000000: system.cpu.decode: Log4GUI: decode: 4024000000: 0: 100cc: beq x7, x6, 84
4024000000: system.cpu.fetch1: Log4GUI: fetch1: 4024000000: 0: 100d0: <assembly>
4025000000: system.cpu.writeback: Log4GUI: writeback: 4025000000: 0: 1011c: jal x0, -80
4025000000: system.cpu.writeback: REGISTERS
4025000000: global: x0=0x00000000
4025000000: global: x1=0x00000000
4025000000: global: x2=0x7fffff90
4025000000: global: x3=0x00000000
4025000000: global: x4=0x00000000
4025000000: global: x5=0x000110b4
4025000000: global: x6=0x00000032
4025000000: global: x7=0x00000032
4025000000: global: x8=0x00000000
4025000000: global: x9=0x00000000
4025000000: global: x10=0x00000000
4025000000: global: x11=0x00000000
4025000000: global: x12=0x00000000
4025000000: global: x13=0x00000000
4025000000: global: x14=0x00000000
4025000000: global: x15=0x00000000
4025000000: global: x16=0x00000000
4025000000: global: x17=0x00000000
4025000000: global: x18=0x00000000
4025000000: global: x19=0x00000000
4025000000: global: x20=0x00000000
4025000000: global: x21=0x00000000
4025000000: global: x22=0x00000000
4025000000: global: x23=0x00000000
4025000000: global: x24=0x00000000
4025000000: global: x25=0x00000000
4025000000: global: x26=0x00000000
4025000000: global: x27=0x00000000
4025000000: global: x28=0x00000000
4025000000: global: x29=0x00000000
4025000000: global: x30=0x00000000
4025000000: global: x31=0x00000000
4025000000: global: f0=0x3f800000
4025000000: global: f1=0x41800000
4025000000: global: f2=0x40800000
4025000000: global: f3=0x40000000
4025000000: global: f4=0x41000000
4025000000: global: f5=0x00000000
4025000000: global: f6=0x00000000
4025000000: global: f7=0x00000000
4025000000: global: f8=0x00000000
4025000000: global: f9=0x00000000
4025000000: global: f10=0x3f91377d
4025000000: global: f11=0x00000000
4025000000: global: f12=0x42440000
4025000000: global: f13=0x43c40000
4025000000: global: f14=0x43c70000
4025000000: global: f15=0x00000000
4025000000: global: f16=0x3b24a9cf
4025000000: global: f17=0x00000000
4025000000: global: f18=0x00000000
4025000000: global: f19=0x00000000
4025000000: global: f20=0x00000000
4025000000: global: f21=0x00000000
4025000000: global: f22=0x00000000
4025000000: global: f23=0x00000000
4025000000: global: f24=0x00000000
4025000000: global: f25=0x00000000
4025000000: global: f26=0x00000000
4025000000: global: f27=0x00000000
4025000000: global: f28=0x00000000
4025000000: global: f29=0x00000000
4025000000: global: f30=0x00000000
4025000000: global: f31=0x00000000
4025000000: system.cpu.execute: Log4GUI: execute: 4025000000: 0: 100cc: beq x7, x6, 84: 0
4025000000: system.cpu.execute: Log4GUI: execute: 4025000000: 0: 10114: fdiv_s f11, f11, f1: 5
4025000000: system.cpu.fetch1: Log4GUI: fetch1: 4025000000: 0: 10120: <assembly>
4026000000: system.cpu.memory: Log4GUI: memory: 4026000000: 0: 100cc: beq x7, x6, 84
4026000000: system.cpu.execute: Log4GUI: execute: 4026000000: 0: 10114: fdiv_s f11, f11, f1: 5
4026000000: system.cpu.decode: Log4GUI: decode: 4026000000: 0: 10120: auipc x5, 1
4026000000: system.cpu.fetch1: Log4GUI: fetch1: 4026000000: 0: 10124: <assembly>
4027000000: system.cpu.writeback: Log4GUI: writeback: 4027000000: 0: 100cc: beq x7, x6, 84
4027000000: system.cpu.writeback: REGISTERS
4027000000: global: x0=0x00000000
4027000000: global: x1=0x00000000
4027000000: global: x2=0x7fffff90
4027000000: global: x3=0x00000000
4027000000: global: x4=0x00000000
4027000000: global: x5=0x000110b4
4027000000: global: x6=0x00000032
4027000000: global: x7=0x00000032
4027000000: global: x8=0x00000000
4027000000: global: x9=0x00000000
4027000000: global: x10=0x00000000
4027000000: global: x11=0x00000000
4027000000: global: x12=0x00000000
4027000000: global: x13=0x00000000
4027000000: global: x14=0x00000000
4027000000: global: x15=0x00000000
4027000000: global: x16=0x00000000
4027000000: global: x17=0x00000000
4027000000: global: x18=0x00000000
4027000000: global: x19=0x00000000
4027000000: global: x20=0x00000000
4027000000: global: x21=0x00000000
4027000000: global: x22=0x00000000
4027000000: global: x23=0x00000000
4027000000: global: x24=0x00000000
4027000000: global: x25=0x00000000
4027000000: global: x26=0x00000000
4027000000: global: x27=0x00000000
4027000000: global: x28=0x00000000
4027000000: global: x29=0x00000000
4027000000: global: x30=0x00000000
4027000000: global: x31=0x00000000
4027000000: global: f0=0x3f800000
4027000000: global: f1=0x41800000
4027000000: global: f2=0x40800000
4027000000: global: f3=0x40000000
4027000000: global: f4=0x41000000
4027000000: global: f5=0x00000000
4027000000: global: f6=0x00000000
4027000000: global: f7=0x00000000
4027000000: global: f8=0x00000000
4027000000: global: f9=0x00000000
4027000000: global: f10=0x3f91377d
4027000000: global: f11=0x00000000
4027000000: global: f12=0x42440000
4027000000: global: f13=0x43c40000
4027000000: global: f14=0x43c70000
4027000000: global: f15=0x00000000
4027000000: global: f16=0x3b24a9cf
4027000000: global: f17=0x00000000
4027000000: global: f18=0x00000000
4027000000: global: f19=0x00000000
4027000000: global: f20=0x00000000
4027000000: global: f21=0x00000000
4027000000: global: f22=0x00000000
4027000000: global: f23=0x00000000
4027000000: global: f24=0x00000000
4027000000: global: f25=0x00000000
4027000000: global: f26=0x00000000
4027000000: global: f27=0x00000000
4027000000: global: f28=0x00000000
4027000000: global: f29=0x00000000
4027000000: global: f30=0x00000000
4027000000: global: f31=0x00000000
4027000000: system.cpu.execute: Log4GUI: execute: 4027000000: 0: 10120: auipc x5, 1: 0
4027000000: system.cpu.execute: Log4GUI: execute: 4027000000: 0: 10114: fdiv_s f11, f11, f1: 5
4027000000: system.cpu.decode: Log4GUI: decode: 4027000000: 0: 10124: fsw f10, 16(x5)
4027000000: system.cpu.fetch1: Log4GUI: fetch1: 4027000000: 0: 10128: <assembly>
4028000000: system.cpu.memory: Log4GUI: memory: 4028000000: 0: 10120: auipc x5, 1
4028000000: system.cpu.execute: Log4GUI: execute: 4028000000: 0: 10124: fsw f10, 16(x5): 0
4028000000: system.cpu.execute: Log4GUI: execute: 4028000000: 0: 10114: fdiv_s f11, f11, f1: 5
4028000000: system.cpu.decode: Log4GUI: decode: 4028000000: 0: 10128: addi x17, x0, 10
4028000000: system.cpu.fetch1: Log4GUI: fetch1: 4028000000: 0: 1012c: <assembly>
4029000000: system.cpu.writeback: Log4GUI: writeback: 4029000000: 0: 10120: auipc x5, 1
4029000000: system.cpu.writeback: REGISTERS
4029000000: global: x0=0x00000000
4029000000: global: x1=0x00000000
4029000000: global: x2=0x7fffff90
4029000000: global: x3=0x00000000
4029000000: global: x4=0x00000000
4029000000: global: x5=0x00011120
4029000000: global: x6=0x00000032
4029000000: global: x7=0x00000032
4029000000: global: x8=0x00000000
4029000000: global: x9=0x00000000
4029000000: global: x10=0x00000000
4029000000: global: x11=0x00000000
4029000000: global: x12=0x00000000
4029000000: global: x13=0x00000000
4029000000: global: x14=0x00000000
4029000000: global: x15=0x00000000
4029000000: global: x16=0x00000000
4029000000: global: x17=0x00000000
4029000000: global: x18=0x00000000
4029000000: global: x19=0x00000000
4029000000: global: x20=0x00000000
4029000000: global: x21=0x00000000
4029000000: global: x22=0x00000000
4029000000: global: x23=0x00000000
4029000000: global: x24=0x00000000
4029000000: global: x25=0x00000000
4029000000: global: x26=0x00000000
4029000000: global: x27=0x00000000
4029000000: global: x28=0x00000000
4029000000: global: x29=0x00000000
4029000000: global: x30=0x00000000
4029000000: global: x31=0x00000000
4029000000: global: f0=0x3f800000
4029000000: global: f1=0x41800000
4029000000: global: f2=0x40800000
4029000000: global: f3=0x40000000
4029000000: global: f4=0x41000000
4029000000: global: f5=0x00000000
4029000000: global: f6=0x00000000
4029000000: global: f7=0x00000000
4029000000: global: f8=0x00000000
4029000000: global: f9=0x00000000
4029000000: global: f10=0x3f91377d
4029000000: global: f11=0x00000000
4029000000: global: f12=0x42440000
4029000000: global: f13=0x43c40000
4029000000: global: f14=0x43c70000
4029000000: global: f15=0x00000000
4029000000: global: f16=0x3b24a9cf
4029000000: global: f17=0x00000000
4029000000: global: f18=0x00000000
4029000000: global: f19=0x00000000
4029000000: global: f20=0x00000000
4029000000: global: f21=0x00000000
4029000000: global: f22=0x00000000
4029000000: global: f23=0x00000000
4029000000: global: f24=0x00000000
4029000000: global: f25=0x00000000
4029000000: global: f26=0x00000000
4029000000: global: f27=0x00000000
4029000000: global: f28=0x00000000
4029000000: global: f29=0x00000000
4029000000: global: f30=0x00000000
4029000000: global: f31=0x00000000
4029000000: system.cpu.memory: Log4GUI: memory: 4029000000: 0: 10114: fdiv_s f11, f11, f1
4029000000: system.cpu.decode: Log4GUI: decode: 4029000000: 1: 10128: addi x17, x0, 10
4029000000: system.cpu.fetch1: Log4GUI: fetch1: 4029000000: 1: 1012c: <assembly>
4030000000: system.cpu.writeback: Log4GUI: writeback: 4030000000: 0: 10114: fdiv_s f11, f11, f1
4030000000: system.cpu.writeback: REGISTERS
4030000000: global: x0=0x00000000
4030000000: global: x1=0x00000000
4030000000: global: x2=0x7fffff90
4030000000: global: x3=0x00000000
4030000000: global: x4=0x00000000
4030000000: global: x5=0x00011120
4030000000: global: x6=0x00000032
4030000000: global: x7=0x00000032
4030000000: global: x8=0x00000000
4030000000: global: x9=0x00000000
4030000000: global: x10=0x00000000
4030000000: global: x11=0x00000000
4030000000: global: x12=0x00000000
4030000000: global: x13=0x00000000
4030000000: global: x14=0x00000000
4030000000: global: x15=0x00000000
4030000000: global: x16=0x00000000
4030000000: global: x17=0x00000000
4030000000: global: x18=0x00000000
4030000000: global: x19=0x00000000
4030000000: global: x20=0x00000000
4030000000: global: x21=0x00000000
4030000000: global: x22=0x00000000
4030000000: global: x23=0x00000000
4030000000: global: x24=0x00000000
4030000000: global: x25=0x00000000
4030000000: global: x26=0x00000000
4030000000: global: x27=0x00000000
4030000000: global: x28=0x00000000
4030000000: global: x29=0x00000000
4030000000: global: x30=0x00000000
4030000000: global: x31=0x00000000
4030000000: global: f0=0x3f800000
4030000000: global: f1=0x41800000
4030000000: global: f2=0x40800000
4030000000: global: f3=0x40000000
4030000000: global: f4=0x41000000
4030000000: global: f5=0x00000000
4030000000: global: f6=0x00000000
4030000000: global: f7=0x00000000
4030000000: global: f8=0x00000000
4030000000: global: f9=0x00000000
4030000000: global: f10=0x3f91377d
4030000000: global: f11=0x00000000
4030000000: global: f12=0x42440000
4030000000: global: f13=0x43c40000
4030000000: global: f14=0x43c70000
4030000000: global: f15=0x00000000
4030000000: global: f16=0x3b24a9cf
4030000000: global: f17=0x00000000
4030000000: global: f18=0x00000000
4030000000: global: f19=0x00000000
4030000000: global: f20=0x00000000
4030000000: global: f21=0x00000000
4030000000: global: f22=0x00000000
4030000000: global: f23=0x00000000
4030000000: global: f24=0x00000000
4030000000: global: f25=0x00000000
4030000000: global: f26=0x00000000
4030000000: global: f27=0x00000000
4030000000: global: f28=0x00000000
4030000000: global: f29=0x00000000
4030000000: global: f30=0x00000000
4030000000: global: f31=0x00000000
4030000000: system.cpu.memory: Log4GUI: memory: 4030000000: 0: 10124: fsw f10, 16(x5)
4030000000: system.cpu.execute: Log4GUI: execute: 4030000000: 0: 10128: addi x17, x0, 10: 0
4030000000: system.cpu.decode: Log4GUI: decode: 4030000000: 0: 1012c: ecall
4030000000: system.cpu.fetch1: Log4GUI: fetch1: 4030000000: 0: 10130: <assembly>
4031000000: system.cpu.writeback: Log4GUI: writeback: 4031000000: 0: 10124: fsw f10, 16(x5)
4031000000: system.cpu.writeback: REGISTERS
4031000000: global: x0=0x00000000
4031000000: global: x1=0x00000000
4031000000: global: x2=0x7fffff90
4031000000: global: x3=0x00000000
4031000000: global: x4=0x00000000
4031000000: global: x5=0x00011120
4031000000: global: x6=0x00000032
4031000000: global: x7=0x00000032
4031000000: global: x8=0x00000000
4031000000: global: x9=0x00000000
4031000000: global: x10=0x00000000
4031000000: global: x11=0x00000000
4031000000: global: x12=0x00000000
4031000000: global: x13=0x00000000
4031000000: global: x14=0x00000000
4031000000: global: x15=0x00000000
4031000000: global: x16=0x00000000
4031000000: global: x17=0x00000000
4031000000: global: x18=0x00000000
4031000000: global: x19=0x00000000
4031000000: global: x20=0x00000000
4031000000: global: x21=0x00000000
4031000000: global: x22=0x00000000
4031000000: global: x23=0x00000000
4031000000: global: x24=0x00000000
4031000000: global: x25=0x00000000
4031000000: global: x26=0x00000000
4031000000: global: x27=0x00000000
4031000000: global: x28=0x00000000
4031000000: global: x29=0x00000000
4031000000: global: x30=0x00000000
4031000000: global: x31=0x00000000
4031000000: global: f0=0x3f800000
4031000000: global: f1=0x41800000
4031000000: global: f2=0x40800000
4031000000: global: f3=0x40000000
4031000000: global: f4=0x41000000
4031000000: global: f5=0x00000000
4031000000: global: f6=0x00000000
4031000000: global: f7=0x00000000
4031000000: global: f8=0x00000000
4031000000: global: f9=0x00000000
4031000000: global: f10=0x3f91377d
4031000000: global: f11=0x00000000
4031000000: global: f12=0x42440000
4031000000: global: f13=0x43c40000
4031000000: global: f14=0x43c70000
4031000000: global: f15=0x00000000
4031000000: global: f16=0x3b24a9cf
4031000000: global: f17=0x00000000
4031000000: global: f18=0x00000000
4031000000: global: f19=0x00000000
4031000000: global: f20=0x00000000
4031000000: global: f21=0x00000000
4031000000: global: f22=0x00000000
4031000000: global: f23=0x00000000
4031000000: global: f24=0x00000000
4031000000: global: f25=0x00000000
4031000000: global: f26=0x00000000
4031000000: global: f27=0x00000000
4031000000: global: f28=0x00000000
4031000000: global: f29=0x00000000
4031000000: global: f30=0x00000000
4031000000: global: f31=0x00000000
4031000000: system.cpu.memory: Log4GUI: memory: 4031000000: 0: 10128: addi x17, x0, 10
4031000000: system.cpu.execute: Log4GUI: execute: 4031000000: 0: 1012c: ecall: -1
