Global frequency set at 1000000000000 ticks per second
gem5 Simulator System.  https://www.gem5.org
gem5 is copyrighted software; use the --copyright option for details.

gem5 version 22.1.0.0
gem5 compiled Aug 27 2025 16:10:28
gem5 started Oct 16 2025 16:35:16
gem5 executing on vboxuser-VirtualBox, pid 3823
command line: /home/vboxuser/gem5/build/RISCV/gem5.opt --debug-flags=MinorGUI gem5_config.py --cpu-type MinorCPU --caches --l1d_size 8388608 --l1i_size 8388608 --cacheline_size 512 --cpu-clock 1MHz --sys-clock 10GHz -c program_1

**** REAL SIMULATION ****
1000000: system.cpu.fetch1: Log4GUI: fetch1: 1000000: 0: 10094: <assembly>
2000000: system.cpu.fetch1: Log4GUI: fetch1: 2000000: 1: 10094: <assembly>
3000000: system.cpu.fetch1: Log4GUI: fetch1: 3000000: 1: 10094: <assembly>
4000000: system.cpu.fetch1: Log4GUI: fetch1: 4000000: 1: 10094: <assembly>
5000000: system.cpu.decode: Log4GUI: decode: 5000000: 0: 10094: auipc x1, 1
5000000: system.cpu.fetch1: Log4GUI: fetch1: 5000000: 0: 10098: <assembly>
6000000: system.cpu.execute: Log4GUI: execute: 6000000: 0: 10094: auipc x1, 1: 0
6000000: system.cpu.decode: Log4GUI: decode: 6000000: 0: 10098: addi x1, x1, 168
6000000: system.cpu.fetch1: Log4GUI: fetch1: 6000000: 0: 1009c: <assembly>
7000000: system.cpu.memory: Log4GUI: memory: 7000000: 0: 10094: auipc x1, 1
7000000: system.cpu.execute: Log4GUI: execute: 7000000: 0: 10098: addi x1, x1, 168: 0
7000000: system.cpu.decode: Log4GUI: decode: 7000000: 0: 1009c: flw f1, 0(x1)
7000000: system.cpu.fetch1: Log4GUI: fetch1: 7000000: 0: 100a0: <assembly>
8000000: system.cpu.writeback: Log4GUI: writeback: 8000000: 0: 10094: auipc x1, 1
8000000: system.cpu.writeback: REGISTERS
8000000: global: x0=0x00000000
8000000: global: x1=0x00011094
8000000: global: x2=0x7fffff90
8000000: global: x3=0x00000000
8000000: global: x4=0x00000000
8000000: global: x5=0x00000000
8000000: global: x6=0x00000000
8000000: global: x7=0x00000000
8000000: global: x8=0x00000000
8000000: global: x9=0x00000000
8000000: global: x10=0x00000000
8000000: global: x11=0x00000000
8000000: global: x12=0x00000000
8000000: global: x13=0x00000000
8000000: global: x14=0x00000000
8000000: global: x15=0x00000000
8000000: global: x16=0x00000000
8000000: global: x17=0x00000000
8000000: global: x18=0x00000000
8000000: global: x19=0x00000000
8000000: global: x20=0x00000000
8000000: global: x21=0x00000000
8000000: global: x22=0x00000000
8000000: global: x23=0x00000000
8000000: global: x24=0x00000000
8000000: global: x25=0x00000000
8000000: global: x26=0x00000000
8000000: global: x27=0x00000000
8000000: global: x28=0x00000000
8000000: global: x29=0x00000000
8000000: global: x30=0x00000000
8000000: global: x31=0x00000000
8000000: global: f0=0x00000000
8000000: global: f1=0x00000000
8000000: global: f2=0x00000000
8000000: global: f3=0x00000000
8000000: global: f4=0x00000000
8000000: global: f5=0x00000000
8000000: global: f6=0x00000000
8000000: global: f7=0x00000000
8000000: global: f8=0x00000000
8000000: global: f9=0x00000000
8000000: global: f10=0x00000000
8000000: global: f11=0x00000000
8000000: global: f12=0x00000000
8000000: global: f13=0x00000000
8000000: global: f14=0x00000000
8000000: global: f15=0x00000000
8000000: global: f16=0x00000000
8000000: global: f17=0x00000000
8000000: global: f18=0x00000000
8000000: global: f19=0x00000000
8000000: global: f20=0x00000000
8000000: global: f21=0x00000000
8000000: global: f22=0x00000000
8000000: global: f23=0x00000000
8000000: global: f24=0x00000000
8000000: global: f25=0x00000000
8000000: global: f26=0x00000000
8000000: global: f27=0x00000000
8000000: global: f28=0x00000000
8000000: global: f29=0x00000000
8000000: global: f30=0x00000000
8000000: global: f31=0x00000000
8000000: system.cpu.memory: Log4GUI: memory: 8000000: 0: 10098: addi x1, x1, 168
8000000: system.cpu.execute: Log4GUI: execute: 8000000: 0: 1009c: flw f1, 0(x1): 0
8000000: system.cpu.decode: Log4GUI: decode: 8000000: 0: 100a0: auipc x2, 1
8000000: system.cpu.fetch1: Log4GUI: fetch1: 8000000: 0: 100a4: <assembly>
9000000: system.cpu.writeback: Log4GUI: writeback: 9000000: 0: 10098: addi x1, x1, 168
9000000: system.cpu.writeback: REGISTERS
9000000: global: x0=0x00000000
9000000: global: x1=0x0001113c
9000000: global: x2=0x7fffff90
9000000: global: x3=0x00000000
9000000: global: x4=0x00000000
9000000: global: x5=0x00000000
9000000: global: x6=0x00000000
9000000: global: x7=0x00000000
9000000: global: x8=0x00000000
9000000: global: x9=0x00000000
9000000: global: x10=0x00000000
9000000: global: x11=0x00000000
9000000: global: x12=0x00000000
9000000: global: x13=0x00000000
9000000: global: x14=0x00000000
9000000: global: x15=0x00000000
9000000: global: x16=0x00000000
9000000: global: x17=0x00000000
9000000: global: x18=0x00000000
9000000: global: x19=0x00000000
9000000: global: x20=0x00000000
9000000: global: x21=0x00000000
9000000: global: x22=0x00000000
9000000: global: x23=0x00000000
9000000: global: x24=0x00000000
9000000: global: x25=0x00000000
9000000: global: x26=0x00000000
9000000: global: x27=0x00000000
9000000: global: x28=0x00000000
9000000: global: x29=0x00000000
9000000: global: x30=0x00000000
9000000: global: x31=0x00000000
9000000: global: f0=0x00000000
9000000: global: f1=0x00000000
9000000: global: f2=0x00000000
9000000: global: f3=0x00000000
9000000: global: f4=0x00000000
9000000: global: f5=0x00000000
9000000: global: f6=0x00000000
9000000: global: f7=0x00000000
9000000: global: f8=0x00000000
9000000: global: f9=0x00000000
9000000: global: f10=0x00000000
9000000: global: f11=0x00000000
9000000: global: f12=0x00000000
9000000: global: f13=0x00000000
9000000: global: f14=0x00000000
9000000: global: f15=0x00000000
9000000: global: f16=0x00000000
9000000: global: f17=0x00000000
9000000: global: f18=0x00000000
9000000: global: f19=0x00000000
9000000: global: f20=0x00000000
9000000: global: f21=0x00000000
9000000: global: f22=0x00000000
9000000: global: f23=0x00000000
9000000: global: f24=0x00000000
9000000: global: f25=0x00000000
9000000: global: f26=0x00000000
9000000: global: f27=0x00000000
9000000: global: f28=0x00000000
9000000: global: f29=0x00000000
9000000: global: f30=0x00000000
9000000: global: f31=0x00000000
9000000: system.cpu.memory: Log4GUI: memory: 9000000: 0: 1009c: flw f1, 0(x1)
9000000: system.cpu.execute: Log4GUI: execute: 9000000: 0: 100a0: auipc x2, 1: 0
9000000: system.cpu.decode: Log4GUI: decode: 9000000: 0: 100a4: addi x2, x2, 284
9000000: system.cpu.fetch1: Log4GUI: fetch1: 9000000: 0: 100a8: <assembly>
10000000: system.cpu.memory: Log4GUI: memory: 10000000: 1: 1009c: flw f1, 0(x1)
10000000: system.cpu.execute: Log4GUI: execute: 10000000: 1: 100a0: auipc x2, 1: 0
10000000: system.cpu.decode: Log4GUI: decode: 10000000: 1: 100a4: addi x2, x2, 284
10000000: system.cpu.fetch1: Log4GUI: fetch1: 10000000: 1: 100a8: <assembly>
11000000: system.cpu.decode: Log4GUI: decode: 11000000: 1: 100a4: addi x2, x2, 284
11000000: system.cpu.fetch1: Log4GUI: fetch1: 11000000: 1: 100a8: <assembly>
12000000: system.cpu.writeback: Log4GUI: writeback: 12000000: 0: 1009c: flw f1, 0(x1)
12000000: system.cpu.writeback: REGISTERS
12000000: global: x0=0x00000000
12000000: global: x1=0x0001113c
12000000: global: x2=0x7fffff90
12000000: global: x3=0x00000000
12000000: global: x4=0x00000000
12000000: global: x5=0x00000000
12000000: global: x6=0x00000000
12000000: global: x7=0x00000000
12000000: global: x8=0x00000000
12000000: global: x9=0x00000000
12000000: global: x10=0x00000000
12000000: global: x11=0x00000000
12000000: global: x12=0x00000000
12000000: global: x13=0x00000000
12000000: global: x14=0x00000000
12000000: global: x15=0x00000000
12000000: global: x16=0x00000000
12000000: global: x17=0x00000000
12000000: global: x18=0x00000000
12000000: global: x19=0x00000000
12000000: global: x20=0x00000000
12000000: global: x21=0x00000000
12000000: global: x22=0x00000000
12000000: global: x23=0x00000000
12000000: global: x24=0x00000000
12000000: global: x25=0x00000000
12000000: global: x26=0x00000000
12000000: global: x27=0x00000000
12000000: global: x28=0x00000000
12000000: global: x29=0x00000000
12000000: global: x30=0x00000000
12000000: global: x31=0x00000000
12000000: global: f0=0x00000000
12000000: global: f1=0x40933333
12000000: global: f2=0x00000000
12000000: global: f3=0x00000000
12000000: global: f4=0x00000000
12000000: global: f5=0x00000000
12000000: global: f6=0x00000000
12000000: global: f7=0x00000000
12000000: global: f8=0x00000000
12000000: global: f9=0x00000000
12000000: global: f10=0x00000000
12000000: global: f11=0x00000000
12000000: global: f12=0x00000000
12000000: global: f13=0x00000000
12000000: global: f14=0x00000000
12000000: global: f15=0x00000000
12000000: global: f16=0x00000000
12000000: global: f17=0x00000000
12000000: global: f18=0x00000000
12000000: global: f19=0x00000000
12000000: global: f20=0x00000000
12000000: global: f21=0x00000000
12000000: global: f22=0x00000000
12000000: global: f23=0x00000000
12000000: global: f24=0x00000000
12000000: global: f25=0x00000000
12000000: global: f26=0x00000000
12000000: global: f27=0x00000000
12000000: global: f28=0x00000000
12000000: global: f29=0x00000000
12000000: global: f30=0x00000000
12000000: global: f31=0x00000000
12000000: system.cpu.memory: Log4GUI: memory: 12000000: 0: 100a0: auipc x2, 1
12000000: system.cpu.execute: Log4GUI: execute: 12000000: 0: 100a4: addi x2, x2, 284: 0
12000000: system.cpu.decode: Log4GUI: decode: 12000000: 0: 100a8: flw f1, 0(x2)
12000000: system.cpu.fetch1: Log4GUI: fetch1: 12000000: 0: 100ac: <assembly>
13000000: system.cpu.writeback: Log4GUI: writeback: 13000000: 0: 100a0: auipc x2, 1
13000000: system.cpu.writeback: REGISTERS
13000000: global: x0=0x00000000
13000000: global: x1=0x0001113c
13000000: global: x2=0x000110a0
13000000: global: x3=0x00000000
13000000: global: x4=0x00000000
13000000: global: x5=0x00000000
13000000: global: x6=0x00000000
13000000: global: x7=0x00000000
13000000: global: x8=0x00000000
13000000: global: x9=0x00000000
13000000: global: x10=0x00000000
13000000: global: x11=0x00000000
13000000: global: x12=0x00000000
13000000: global: x13=0x00000000
13000000: global: x14=0x00000000
13000000: global: x15=0x00000000
13000000: global: x16=0x00000000
13000000: global: x17=0x00000000
13000000: global: x18=0x00000000
13000000: global: x19=0x00000000
13000000: global: x20=0x00000000
13000000: global: x21=0x00000000
13000000: global: x22=0x00000000
13000000: global: x23=0x00000000
13000000: global: x24=0x00000000
13000000: global: x25=0x00000000
13000000: global: x26=0x00000000
13000000: global: x27=0x00000000
13000000: global: x28=0x00000000
13000000: global: x29=0x00000000
13000000: global: x30=0x00000000
13000000: global: x31=0x00000000
13000000: global: f0=0x00000000
13000000: global: f1=0x40933333
13000000: global: f2=0x00000000
13000000: global: f3=0x00000000
13000000: global: f4=0x00000000
13000000: global: f5=0x00000000
13000000: global: f6=0x00000000
13000000: global: f7=0x00000000
13000000: global: f8=0x00000000
13000000: global: f9=0x00000000
13000000: global: f10=0x00000000
13000000: global: f11=0x00000000
13000000: global: f12=0x00000000
13000000: global: f13=0x00000000
13000000: global: f14=0x00000000
13000000: global: f15=0x00000000
13000000: global: f16=0x00000000
13000000: global: f17=0x00000000
13000000: global: f18=0x00000000
13000000: global: f19=0x00000000
13000000: global: f20=0x00000000
13000000: global: f21=0x00000000
13000000: global: f22=0x00000000
13000000: global: f23=0x00000000
13000000: global: f24=0x00000000
13000000: global: f25=0x00000000
13000000: global: f26=0x00000000
13000000: global: f27=0x00000000
13000000: global: f28=0x00000000
13000000: global: f29=0x00000000
13000000: global: f30=0x00000000
13000000: global: f31=0x00000000
13000000: system.cpu.memory: Log4GUI: memory: 13000000: 0: 100a4: addi x2, x2, 284
13000000: system.cpu.execute: Log4GUI: execute: 13000000: 0: 100a8: flw f1, 0(x2): 0
13000000: system.cpu.decode: Log4GUI: decode: 13000000: 0: 100ac: auipc x3, 1
13000000: system.cpu.fetch1: Log4GUI: fetch1: 13000000: 0: 100b0: <assembly>
14000000: system.cpu.writeback: Log4GUI: writeback: 14000000: 0: 100a4: addi x2, x2, 284
14000000: system.cpu.writeback: REGISTERS
14000000: global: x0=0x00000000
14000000: global: x1=0x0001113c
14000000: global: x2=0x000111bc
14000000: global: x3=0x00000000
14000000: global: x4=0x00000000
14000000: global: x5=0x00000000
14000000: global: x6=0x00000000
14000000: global: x7=0x00000000
14000000: global: x8=0x00000000
14000000: global: x9=0x00000000
14000000: global: x10=0x00000000
14000000: global: x11=0x00000000
14000000: global: x12=0x00000000
14000000: global: x13=0x00000000
14000000: global: x14=0x00000000
14000000: global: x15=0x00000000
14000000: global: x16=0x00000000
14000000: global: x17=0x00000000
14000000: global: x18=0x00000000
14000000: global: x19=0x00000000
14000000: global: x20=0x00000000
14000000: global: x21=0x00000000
14000000: global: x22=0x00000000
14000000: global: x23=0x00000000
14000000: global: x24=0x00000000
14000000: global: x25=0x00000000
14000000: global: x26=0x00000000
14000000: global: x27=0x00000000
14000000: global: x28=0x00000000
14000000: global: x29=0x00000000
14000000: global: x30=0x00000000
14000000: global: x31=0x00000000
14000000: global: f0=0x00000000
14000000: global: f1=0x40933333
14000000: global: f2=0x00000000
14000000: global: f3=0x00000000
14000000: global: f4=0x00000000
14000000: global: f5=0x00000000
14000000: global: f6=0x00000000
14000000: global: f7=0x00000000
14000000: global: f8=0x00000000
14000000: global: f9=0x00000000
14000000: global: f10=0x00000000
14000000: global: f11=0x00000000
14000000: global: f12=0x00000000
14000000: global: f13=0x00000000
14000000: global: f14=0x00000000
14000000: global: f15=0x00000000
14000000: global: f16=0x00000000
14000000: global: f17=0x00000000
14000000: global: f18=0x00000000
14000000: global: f19=0x00000000
14000000: global: f20=0x00000000
14000000: global: f21=0x00000000
14000000: global: f22=0x00000000
14000000: global: f23=0x00000000
14000000: global: f24=0x00000000
14000000: global: f25=0x00000000
14000000: global: f26=0x00000000
14000000: global: f27=0x00000000
14000000: global: f28=0x00000000
14000000: global: f29=0x00000000
14000000: global: f30=0x00000000
14000000: global: f31=0x00000000
14000000: system.cpu.memory: Log4GUI: memory: 14000000: 0: 100a8: flw f1, 0(x2)
14000000: system.cpu.execute: Log4GUI: execute: 14000000: 0: 100ac: auipc x3, 1: 0
14000000: system.cpu.decode: Log4GUI: decode: 14000000: 0: 100b0: addi x3, x3, 400
14000000: system.cpu.fetch1: Log4GUI: fetch1: 14000000: 0: 100b4: <assembly>
15000000: system.cpu.writeback: Log4GUI: writeback: 15000000: 0: 100a8: flw f1, 0(x2)
15000000: system.cpu.writeback: REGISTERS
15000000: global: x0=0x00000000
15000000: global: x1=0x0001113c
15000000: global: x2=0x000111bc
15000000: global: x3=0x00000000
15000000: global: x4=0x00000000
15000000: global: x5=0x00000000
15000000: global: x6=0x00000000
15000000: global: x7=0x00000000
15000000: global: x8=0x00000000
15000000: global: x9=0x00000000
15000000: global: x10=0x00000000
15000000: global: x11=0x00000000
15000000: global: x12=0x00000000
15000000: global: x13=0x00000000
15000000: global: x14=0x00000000
15000000: global: x15=0x00000000
15000000: global: x16=0x00000000
15000000: global: x17=0x00000000
15000000: global: x18=0x00000000
15000000: global: x19=0x00000000
15000000: global: x20=0x00000000
15000000: global: x21=0x00000000
15000000: global: x22=0x00000000
15000000: global: x23=0x00000000
15000000: global: x24=0x00000000
15000000: global: x25=0x00000000
15000000: global: x26=0x00000000
15000000: global: x27=0x00000000
15000000: global: x28=0x00000000
15000000: global: x29=0x00000000
15000000: global: x30=0x00000000
15000000: global: x31=0x00000000
15000000: global: f0=0x00000000
15000000: global: f1=0x4019999a
15000000: global: f2=0x00000000
15000000: global: f3=0x00000000
15000000: global: f4=0x00000000
15000000: global: f5=0x00000000
15000000: global: f6=0x00000000
15000000: global: f7=0x00000000
15000000: global: f8=0x00000000
15000000: global: f9=0x00000000
15000000: global: f10=0x00000000
15000000: global: f11=0x00000000
15000000: global: f12=0x00000000
15000000: global: f13=0x00000000
15000000: global: f14=0x00000000
15000000: global: f15=0x00000000
15000000: global: f16=0x00000000
15000000: global: f17=0x00000000
15000000: global: f18=0x00000000
15000000: global: f19=0x00000000
15000000: global: f20=0x00000000
15000000: global: f21=0x00000000
15000000: global: f22=0x00000000
15000000: global: f23=0x00000000
15000000: global: f24=0x00000000
15000000: global: f25=0x00000000
15000000: global: f26=0x00000000
15000000: global: f27=0x00000000
15000000: global: f28=0x00000000
15000000: global: f29=0x00000000
15000000: global: f30=0x00000000
15000000: global: f31=0x00000000
15000000: system.cpu.memory: Log4GUI: memory: 15000000: 0: 100ac: auipc x3, 1
15000000: system.cpu.execute: Log4GUI: execute: 15000000: 0: 100b0: addi x3, x3, 400: 0
15000000: system.cpu.decode: Log4GUI: decode: 15000000: 0: 100b4: flw f1, 0(x3)
15000000: system.cpu.fetch1: Log4GUI: fetch1: 15000000: 0: 100b8: <assembly>
16000000: system.cpu.writeback: Log4GUI: writeback: 16000000: 0: 100ac: auipc x3, 1
16000000: system.cpu.writeback: REGISTERS
16000000: global: x0=0x00000000
16000000: global: x1=0x0001113c
16000000: global: x2=0x000111bc
16000000: global: x3=0x000110ac
16000000: global: x4=0x00000000
16000000: global: x5=0x00000000
16000000: global: x6=0x00000000
16000000: global: x7=0x00000000
16000000: global: x8=0x00000000
16000000: global: x9=0x00000000
16000000: global: x10=0x00000000
16000000: global: x11=0x00000000
16000000: global: x12=0x00000000
16000000: global: x13=0x00000000
16000000: global: x14=0x00000000
16000000: global: x15=0x00000000
16000000: global: x16=0x00000000
16000000: global: x17=0x00000000
16000000: global: x18=0x00000000
16000000: global: x19=0x00000000
16000000: global: x20=0x00000000
16000000: global: x21=0x00000000
16000000: global: x22=0x00000000
16000000: global: x23=0x00000000
16000000: global: x24=0x00000000
16000000: global: x25=0x00000000
16000000: global: x26=0x00000000
16000000: global: x27=0x00000000
16000000: global: x28=0x00000000
16000000: global: x29=0x00000000
16000000: global: x30=0x00000000
16000000: global: x31=0x00000000
16000000: global: f0=0x00000000
16000000: global: f1=0x4019999a
16000000: global: f2=0x00000000
16000000: global: f3=0x00000000
16000000: global: f4=0x00000000
16000000: global: f5=0x00000000
16000000: global: f6=0x00000000
16000000: global: f7=0x00000000
16000000: global: f8=0x00000000
16000000: global: f9=0x00000000
16000000: global: f10=0x00000000
16000000: global: f11=0x00000000
16000000: global: f12=0x00000000
16000000: global: f13=0x00000000
16000000: global: f14=0x00000000
16000000: global: f15=0x00000000
16000000: global: f16=0x00000000
16000000: global: f17=0x00000000
16000000: global: f18=0x00000000
16000000: global: f19=0x00000000
16000000: global: f20=0x00000000
16000000: global: f21=0x00000000
16000000: global: f22=0x00000000
16000000: global: f23=0x00000000
16000000: global: f24=0x00000000
16000000: global: f25=0x00000000
16000000: global: f26=0x00000000
16000000: global: f27=0x00000000
16000000: global: f28=0x00000000
16000000: global: f29=0x00000000
16000000: global: f30=0x00000000
16000000: global: f31=0x00000000
16000000: system.cpu.memory: Log4GUI: memory: 16000000: 0: 100b0: addi x3, x3, 400
16000000: system.cpu.execute: Log4GUI: execute: 16000000: 0: 100b4: flw f1, 0(x3): 0
16000000: system.cpu.decode: Log4GUI: decode: 16000000: 0: 100b8: auipc x4, 1
16000000: system.cpu.fetch1: Log4GUI: fetch1: 16000000: 0: 100bc: <assembly>
17000000: system.cpu.writeback: Log4GUI: writeback: 17000000: 0: 100b0: addi x3, x3, 400
17000000: system.cpu.writeback: REGISTERS
17000000: global: x0=0x00000000
17000000: global: x1=0x0001113c
17000000: global: x2=0x000111bc
17000000: global: x3=0x0001123c
17000000: global: x4=0x00000000
17000000: global: x5=0x00000000
17000000: global: x6=0x00000000
17000000: global: x7=0x00000000
17000000: global: x8=0x00000000
17000000: global: x9=0x00000000
17000000: global: x10=0x00000000
17000000: global: x11=0x00000000
17000000: global: x12=0x00000000
17000000: global: x13=0x00000000
17000000: global: x14=0x00000000
17000000: global: x15=0x00000000
17000000: global: x16=0x00000000
17000000: global: x17=0x00000000
17000000: global: x18=0x00000000
17000000: global: x19=0x00000000
17000000: global: x20=0x00000000
17000000: global: x21=0x00000000
17000000: global: x22=0x00000000
17000000: global: x23=0x00000000
17000000: global: x24=0x00000000
17000000: global: x25=0x00000000
17000000: global: x26=0x00000000
17000000: global: x27=0x00000000
17000000: global: x28=0x00000000
17000000: global: x29=0x00000000
17000000: global: x30=0x00000000
17000000: global: x31=0x00000000
17000000: global: f0=0x00000000
17000000: global: f1=0x4019999a
17000000: global: f2=0x00000000
17000000: global: f3=0x00000000
17000000: global: f4=0x00000000
17000000: global: f5=0x00000000
17000000: global: f6=0x00000000
17000000: global: f7=0x00000000
17000000: global: f8=0x00000000
17000000: global: f9=0x00000000
17000000: global: f10=0x00000000
17000000: global: f11=0x00000000
17000000: global: f12=0x00000000
17000000: global: f13=0x00000000
17000000: global: f14=0x00000000
17000000: global: f15=0x00000000
17000000: global: f16=0x00000000
17000000: global: f17=0x00000000
17000000: global: f18=0x00000000
17000000: global: f19=0x00000000
17000000: global: f20=0x00000000
17000000: global: f21=0x00000000
17000000: global: f22=0x00000000
17000000: global: f23=0x00000000
17000000: global: f24=0x00000000
17000000: global: f25=0x00000000
17000000: global: f26=0x00000000
17000000: global: f27=0x00000000
17000000: global: f28=0x00000000
17000000: global: f29=0x00000000
17000000: global: f30=0x00000000
17000000: global: f31=0x00000000
17000000: system.cpu.memory: Log4GUI: memory: 17000000: 0: 100b4: flw f1, 0(x3)
17000000: system.cpu.execute: Log4GUI: execute: 17000000: 0: 100b8: auipc x4, 1: 0
17000000: system.cpu.decode: Log4GUI: decode: 17000000: 0: 100bc: addi x4, x4, 516
17000000: system.cpu.fetch1: Log4GUI: fetch1: 17000000: 0: 100c0: <assembly>
18000000: system.cpu.memory: Log4GUI: memory: 18000000: 1: 100b4: flw f1, 0(x3)
18000000: system.cpu.execute: Log4GUI: execute: 18000000: 1: 100b8: auipc x4, 1: 0
18000000: system.cpu.decode: Log4GUI: decode: 18000000: 1: 100bc: addi x4, x4, 516
18000000: system.cpu.fetch1: Log4GUI: fetch1: 18000000: 1: 100c0: <assembly>
19000000: system.cpu.decode: Log4GUI: decode: 19000000: 1: 100bc: addi x4, x4, 516
19000000: system.cpu.fetch1: Log4GUI: fetch1: 19000000: 1: 100c0: <assembly>
20000000: system.cpu.writeback: Log4GUI: writeback: 20000000: 0: 100b4: flw f1, 0(x3)
20000000: system.cpu.writeback: REGISTERS
20000000: global: x0=0x00000000
20000000: global: x1=0x0001113c
20000000: global: x2=0x000111bc
20000000: global: x3=0x0001123c
20000000: global: x4=0x00000000
20000000: global: x5=0x00000000
20000000: global: x6=0x00000000
20000000: global: x7=0x00000000
20000000: global: x8=0x00000000
20000000: global: x9=0x00000000
20000000: global: x10=0x00000000
20000000: global: x11=0x00000000
20000000: global: x12=0x00000000
20000000: global: x13=0x00000000
20000000: global: x14=0x00000000
20000000: global: x15=0x00000000
20000000: global: x16=0x00000000
20000000: global: x17=0x00000000
20000000: global: x18=0x00000000
20000000: global: x19=0x00000000
20000000: global: x20=0x00000000
20000000: global: x21=0x00000000
20000000: global: x22=0x00000000
20000000: global: x23=0x00000000
20000000: global: x24=0x00000000
20000000: global: x25=0x00000000
20000000: global: x26=0x00000000
20000000: global: x27=0x00000000
20000000: global: x28=0x00000000
20000000: global: x29=0x00000000
20000000: global: x30=0x00000000
20000000: global: x31=0x00000000
20000000: global: f0=0x00000000
20000000: global: f1=0x40200000
20000000: global: f2=0x00000000
20000000: global: f3=0x00000000
20000000: global: f4=0x00000000
20000000: global: f5=0x00000000
20000000: global: f6=0x00000000
20000000: global: f7=0x00000000
20000000: global: f8=0x00000000
20000000: global: f9=0x00000000
20000000: global: f10=0x00000000
20000000: global: f11=0x00000000
20000000: global: f12=0x00000000
20000000: global: f13=0x00000000
20000000: global: f14=0x00000000
20000000: global: f15=0x00000000
20000000: global: f16=0x00000000
20000000: global: f17=0x00000000
20000000: global: f18=0x00000000
20000000: global: f19=0x00000000
20000000: global: f20=0x00000000
20000000: global: f21=0x00000000
20000000: global: f22=0x00000000
20000000: global: f23=0x00000000
20000000: global: f24=0x00000000
20000000: global: f25=0x00000000
20000000: global: f26=0x00000000
20000000: global: f27=0x00000000
20000000: global: f28=0x00000000
20000000: global: f29=0x00000000
20000000: global: f30=0x00000000
20000000: global: f31=0x00000000
20000000: system.cpu.memory: Log4GUI: memory: 20000000: 0: 100b8: auipc x4, 1
20000000: system.cpu.execute: Log4GUI: execute: 20000000: 0: 100bc: addi x4, x4, 516: 0
20000000: system.cpu.decode: Log4GUI: decode: 20000000: 0: 100c0: auipc x5, 1
20000000: system.cpu.fetch1: Log4GUI: fetch1: 20000000: 0: 100c4: <assembly>
21000000: system.cpu.writeback: Log4GUI: writeback: 21000000: 0: 100b8: auipc x4, 1
21000000: system.cpu.writeback: REGISTERS
21000000: global: x0=0x00000000
21000000: global: x1=0x0001113c
21000000: global: x2=0x000111bc
21000000: global: x3=0x0001123c
21000000: global: x4=0x000110b8
21000000: global: x5=0x00000000
21000000: global: x6=0x00000000
21000000: global: x7=0x00000000
21000000: global: x8=0x00000000
21000000: global: x9=0x00000000
21000000: global: x10=0x00000000
21000000: global: x11=0x00000000
21000000: global: x12=0x00000000
21000000: global: x13=0x00000000
21000000: global: x14=0x00000000
21000000: global: x15=0x00000000
21000000: global: x16=0x00000000
21000000: global: x17=0x00000000
21000000: global: x18=0x00000000
21000000: global: x19=0x00000000
21000000: global: x20=0x00000000
21000000: global: x21=0x00000000
21000000: global: x22=0x00000000
21000000: global: x23=0x00000000
21000000: global: x24=0x00000000
21000000: global: x25=0x00000000
21000000: global: x26=0x00000000
21000000: global: x27=0x00000000
21000000: global: x28=0x00000000
21000000: global: x29=0x00000000
21000000: global: x30=0x00000000
21000000: global: x31=0x00000000
21000000: global: f0=0x00000000
21000000: global: f1=0x40200000
21000000: global: f2=0x00000000
21000000: global: f3=0x00000000
21000000: global: f4=0x00000000
21000000: global: f5=0x00000000
21000000: global: f6=0x00000000
21000000: global: f7=0x00000000
21000000: global: f8=0x00000000
21000000: global: f9=0x00000000
21000000: global: f10=0x00000000
21000000: global: f11=0x00000000
21000000: global: f12=0x00000000
21000000: global: f13=0x00000000
21000000: global: f14=0x00000000
21000000: global: f15=0x00000000
21000000: global: f16=0x00000000
21000000: global: f17=0x00000000
21000000: global: f18=0x00000000
21000000: global: f19=0x00000000
21000000: global: f20=0x00000000
21000000: global: f21=0x00000000
21000000: global: f22=0x00000000
21000000: global: f23=0x00000000
21000000: global: f24=0x00000000
21000000: global: f25=0x00000000
21000000: global: f26=0x00000000
21000000: global: f27=0x00000000
21000000: global: f28=0x00000000
21000000: global: f29=0x00000000
21000000: global: f30=0x00000000
21000000: global: f31=0x00000000
21000000: system.cpu.memory: Log4GUI: memory: 21000000: 0: 100bc: addi x4, x4, 516
21000000: system.cpu.execute: Log4GUI: execute: 21000000: 0: 100c0: auipc x5, 1: 0
21000000: system.cpu.decode: Log4GUI: decode: 21000000: 0: 100c4: addi x5, x5, 636
21000000: system.cpu.fetch1: Log4GUI: fetch1: 21000000: 0: 100c8: <assembly>
22000000: system.cpu.writeback: Log4GUI: writeback: 22000000: 0: 100bc: addi x4, x4, 516
22000000: system.cpu.writeback: REGISTERS
22000000: global: x0=0x00000000
22000000: global: x1=0x0001113c
22000000: global: x2=0x000111bc
22000000: global: x3=0x0001123c
22000000: global: x4=0x000112bc
22000000: global: x5=0x00000000
22000000: global: x6=0x00000000
22000000: global: x7=0x00000000
22000000: global: x8=0x00000000
22000000: global: x9=0x00000000
22000000: global: x10=0x00000000
22000000: global: x11=0x00000000
22000000: global: x12=0x00000000
22000000: global: x13=0x00000000
22000000: global: x14=0x00000000
22000000: global: x15=0x00000000
22000000: global: x16=0x00000000
22000000: global: x17=0x00000000
22000000: global: x18=0x00000000
22000000: global: x19=0x00000000
22000000: global: x20=0x00000000
22000000: global: x21=0x00000000
22000000: global: x22=0x00000000
22000000: global: x23=0x00000000
22000000: global: x24=0x00000000
22000000: global: x25=0x00000000
22000000: global: x26=0x00000000
22000000: global: x27=0x00000000
22000000: global: x28=0x00000000
22000000: global: x29=0x00000000
22000000: global: x30=0x00000000
22000000: global: x31=0x00000000
22000000: global: f0=0x00000000
22000000: global: f1=0x40200000
22000000: global: f2=0x00000000
22000000: global: f3=0x00000000
22000000: global: f4=0x00000000
22000000: global: f5=0x00000000
22000000: global: f6=0x00000000
22000000: global: f7=0x00000000
22000000: global: f8=0x00000000
22000000: global: f9=0x00000000
22000000: global: f10=0x00000000
22000000: global: f11=0x00000000
22000000: global: f12=0x00000000
22000000: global: f13=0x00000000
22000000: global: f14=0x00000000
22000000: global: f15=0x00000000
22000000: global: f16=0x00000000
22000000: global: f17=0x00000000
22000000: global: f18=0x00000000
22000000: global: f19=0x00000000
22000000: global: f20=0x00000000
22000000: global: f21=0x00000000
22000000: global: f22=0x00000000
22000000: global: f23=0x00000000
22000000: global: f24=0x00000000
22000000: global: f25=0x00000000
22000000: global: f26=0x00000000
22000000: global: f27=0x00000000
22000000: global: f28=0x00000000
22000000: global: f29=0x00000000
22000000: global: f30=0x00000000
22000000: global: f31=0x00000000
22000000: system.cpu.memory: Log4GUI: memory: 22000000: 0: 100c0: auipc x5, 1
22000000: system.cpu.execute: Log4GUI: execute: 22000000: 0: 100c4: addi x5, x5, 636: 0
22000000: system.cpu.decode: Log4GUI: decode: 22000000: 0: 100c8: auipc x6, 1
22000000: system.cpu.fetch1: Log4GUI: fetch1: 22000000: 0: 100cc: <assembly>
23000000: system.cpu.writeback: Log4GUI: writeback: 23000000: 0: 100c0: auipc x5, 1
23000000: system.cpu.writeback: REGISTERS
23000000: global: x0=0x00000000
23000000: global: x1=0x0001113c
23000000: global: x2=0x000111bc
23000000: global: x3=0x0001123c
23000000: global: x4=0x000112bc
23000000: global: x5=0x000110c0
23000000: global: x6=0x00000000
23000000: global: x7=0x00000000
23000000: global: x8=0x00000000
23000000: global: x9=0x00000000
23000000: global: x10=0x00000000
23000000: global: x11=0x00000000
23000000: global: x12=0x00000000
23000000: global: x13=0x00000000
23000000: global: x14=0x00000000
23000000: global: x15=0x00000000
23000000: global: x16=0x00000000
23000000: global: x17=0x00000000
23000000: global: x18=0x00000000
23000000: global: x19=0x00000000
23000000: global: x20=0x00000000
23000000: global: x21=0x00000000
23000000: global: x22=0x00000000
23000000: global: x23=0x00000000
23000000: global: x24=0x00000000
23000000: global: x25=0x00000000
23000000: global: x26=0x00000000
23000000: global: x27=0x00000000
23000000: global: x28=0x00000000
23000000: global: x29=0x00000000
23000000: global: x30=0x00000000
23000000: global: x31=0x00000000
23000000: global: f0=0x00000000
23000000: global: f1=0x40200000
23000000: global: f2=0x00000000
23000000: global: f3=0x00000000
23000000: global: f4=0x00000000
23000000: global: f5=0x00000000
23000000: global: f6=0x00000000
23000000: global: f7=0x00000000
23000000: global: f8=0x00000000
23000000: global: f9=0x00000000
23000000: global: f10=0x00000000
23000000: global: f11=0x00000000
23000000: global: f12=0x00000000
23000000: global: f13=0x00000000
23000000: global: f14=0x00000000
23000000: global: f15=0x00000000
23000000: global: f16=0x00000000
23000000: global: f17=0x00000000
23000000: global: f18=0x00000000
23000000: global: f19=0x00000000
23000000: global: f20=0x00000000
23000000: global: f21=0x00000000
23000000: global: f22=0x00000000
23000000: global: f23=0x00000000
23000000: global: f24=0x00000000
23000000: global: f25=0x00000000
23000000: global: f26=0x00000000
23000000: global: f27=0x00000000
23000000: global: f28=0x00000000
23000000: global: f29=0x00000000
23000000: global: f30=0x00000000
23000000: global: f31=0x00000000
23000000: system.cpu.memory: Log4GUI: memory: 23000000: 0: 100c4: addi x5, x5, 636
23000000: system.cpu.execute: Log4GUI: execute: 23000000: 0: 100c8: auipc x6, 1: 0
23000000: system.cpu.decode: Log4GUI: decode: 23000000: 0: 100cc: addi x6, x6, 756
23000000: system.cpu.fetch1: Log4GUI: fetch1: 23000000: 0: 100d0: <assembly>
24000000: system.cpu.writeback: Log4GUI: writeback: 24000000: 0: 100c4: addi x5, x5, 636
24000000: system.cpu.writeback: REGISTERS
24000000: global: x0=0x00000000
24000000: global: x1=0x0001113c
24000000: global: x2=0x000111bc
24000000: global: x3=0x0001123c
24000000: global: x4=0x000112bc
24000000: global: x5=0x0001133c
24000000: global: x6=0x00000000
24000000: global: x7=0x00000000
24000000: global: x8=0x00000000
24000000: global: x9=0x00000000
24000000: global: x10=0x00000000
24000000: global: x11=0x00000000
24000000: global: x12=0x00000000
24000000: global: x13=0x00000000
24000000: global: x14=0x00000000
24000000: global: x15=0x00000000
24000000: global: x16=0x00000000
24000000: global: x17=0x00000000
24000000: global: x18=0x00000000
24000000: global: x19=0x00000000
24000000: global: x20=0x00000000
24000000: global: x21=0x00000000
24000000: global: x22=0x00000000
24000000: global: x23=0x00000000
24000000: global: x24=0x00000000
24000000: global: x25=0x00000000
24000000: global: x26=0x00000000
24000000: global: x27=0x00000000
24000000: global: x28=0x00000000
24000000: global: x29=0x00000000
24000000: global: x30=0x00000000
24000000: global: x31=0x00000000
24000000: global: f0=0x00000000
24000000: global: f1=0x40200000
24000000: global: f2=0x00000000
24000000: global: f3=0x00000000
24000000: global: f4=0x00000000
24000000: global: f5=0x00000000
24000000: global: f6=0x00000000
24000000: global: f7=0x00000000
24000000: global: f8=0x00000000
24000000: global: f9=0x00000000
24000000: global: f10=0x00000000
24000000: global: f11=0x00000000
24000000: global: f12=0x00000000
24000000: global: f13=0x00000000
24000000: global: f14=0x00000000
24000000: global: f15=0x00000000
24000000: global: f16=0x00000000
24000000: global: f17=0x00000000
24000000: global: f18=0x00000000
24000000: global: f19=0x00000000
24000000: global: f20=0x00000000
24000000: global: f21=0x00000000
24000000: global: f22=0x00000000
24000000: global: f23=0x00000000
24000000: global: f24=0x00000000
24000000: global: f25=0x00000000
24000000: global: f26=0x00000000
24000000: global: f27=0x00000000
24000000: global: f28=0x00000000
24000000: global: f29=0x00000000
24000000: global: f30=0x00000000
24000000: global: f31=0x00000000
24000000: system.cpu.memory: Log4GUI: memory: 24000000: 0: 100c8: auipc x6, 1
24000000: system.cpu.execute: Log4GUI: execute: 24000000: 0: 100cc: addi x6, x6, 756: 0
24000000: system.cpu.decode: Log4GUI: decode: 24000000: 0: 100d0: addi x7, x0, 31
24000000: system.cpu.fetch1: Log4GUI: fetch1: 24000000: 0: 100d4: <assembly>
25000000: system.cpu.writeback: Log4GUI: writeback: 25000000: 0: 100c8: auipc x6, 1
25000000: system.cpu.writeback: REGISTERS
25000000: global: x0=0x00000000
25000000: global: x1=0x0001113c
25000000: global: x2=0x000111bc
25000000: global: x3=0x0001123c
25000000: global: x4=0x000112bc
25000000: global: x5=0x0001133c
25000000: global: x6=0x000110c8
25000000: global: x7=0x00000000
25000000: global: x8=0x00000000
25000000: global: x9=0x00000000
25000000: global: x10=0x00000000
25000000: global: x11=0x00000000
25000000: global: x12=0x00000000
25000000: global: x13=0x00000000
25000000: global: x14=0x00000000
25000000: global: x15=0x00000000
25000000: global: x16=0x00000000
25000000: global: x17=0x00000000
25000000: global: x18=0x00000000
25000000: global: x19=0x00000000
25000000: global: x20=0x00000000
25000000: global: x21=0x00000000
25000000: global: x22=0x00000000
25000000: global: x23=0x00000000
25000000: global: x24=0x00000000
25000000: global: x25=0x00000000
25000000: global: x26=0x00000000
25000000: global: x27=0x00000000
25000000: global: x28=0x00000000
25000000: global: x29=0x00000000
25000000: global: x30=0x00000000
25000000: global: x31=0x00000000
25000000: global: f0=0x00000000
25000000: global: f1=0x40200000
25000000: global: f2=0x00000000
25000000: global: f3=0x00000000
25000000: global: f4=0x00000000
25000000: global: f5=0x00000000
25000000: global: f6=0x00000000
25000000: global: f7=0x00000000
25000000: global: f8=0x00000000
25000000: global: f9=0x00000000
25000000: global: f10=0x00000000
25000000: global: f11=0x00000000
25000000: global: f12=0x00000000
25000000: global: f13=0x00000000
25000000: global: f14=0x00000000
25000000: global: f15=0x00000000
25000000: global: f16=0x00000000
25000000: global: f17=0x00000000
25000000: global: f18=0x00000000
25000000: global: f19=0x00000000
25000000: global: f20=0x00000000
25000000: global: f21=0x00000000
25000000: global: f22=0x00000000
25000000: global: f23=0x00000000
25000000: global: f24=0x00000000
25000000: global: f25=0x00000000
25000000: global: f26=0x00000000
25000000: global: f27=0x00000000
25000000: global: f28=0x00000000
25000000: global: f29=0x00000000
25000000: global: f30=0x00000000
25000000: global: f31=0x00000000
25000000: system.cpu.memory: Log4GUI: memory: 25000000: 0: 100cc: addi x6, x6, 756
25000000: system.cpu.execute: Log4GUI: execute: 25000000: 0: 100d0: addi x7, x0, 31: 0
25000000: system.cpu.decode: Log4GUI: decode: 25000000: 0: 100d4: slli x9, x7, 2
25000000: system.cpu.fetch1: Log4GUI: fetch1: 25000000: 0: 100d8: <assembly>
26000000: system.cpu.writeback: Log4GUI: writeback: 26000000: 0: 100cc: addi x6, x6, 756
26000000: system.cpu.writeback: REGISTERS
26000000: global: x0=0x00000000
26000000: global: x1=0x0001113c
26000000: global: x2=0x000111bc
26000000: global: x3=0x0001123c
26000000: global: x4=0x000112bc
26000000: global: x5=0x0001133c
26000000: global: x6=0x000113bc
26000000: global: x7=0x00000000
26000000: global: x8=0x00000000
26000000: global: x9=0x00000000
26000000: global: x10=0x00000000
26000000: global: x11=0x00000000
26000000: global: x12=0x00000000
26000000: global: x13=0x00000000
26000000: global: x14=0x00000000
26000000: global: x15=0x00000000
26000000: global: x16=0x00000000
26000000: global: x17=0x00000000
26000000: global: x18=0x00000000
26000000: global: x19=0x00000000
26000000: global: x20=0x00000000
26000000: global: x21=0x00000000
26000000: global: x22=0x00000000
26000000: global: x23=0x00000000
26000000: global: x24=0x00000000
26000000: global: x25=0x00000000
26000000: global: x26=0x00000000
26000000: global: x27=0x00000000
26000000: global: x28=0x00000000
26000000: global: x29=0x00000000
26000000: global: x30=0x00000000
26000000: global: x31=0x00000000
26000000: global: f0=0x00000000
26000000: global: f1=0x40200000
26000000: global: f2=0x00000000
26000000: global: f3=0x00000000
26000000: global: f4=0x00000000
26000000: global: f5=0x00000000
26000000: global: f6=0x00000000
26000000: global: f7=0x00000000
26000000: global: f8=0x00000000
26000000: global: f9=0x00000000
26000000: global: f10=0x00000000
26000000: global: f11=0x00000000
26000000: global: f12=0x00000000
26000000: global: f13=0x00000000
26000000: global: f14=0x00000000
26000000: global: f15=0x00000000
26000000: global: f16=0x00000000
26000000: global: f17=0x00000000
26000000: global: f18=0x00000000
26000000: global: f19=0x00000000
26000000: global: f20=0x00000000
26000000: global: f21=0x00000000
26000000: global: f22=0x00000000
26000000: global: f23=0x00000000
26000000: global: f24=0x00000000
26000000: global: f25=0x00000000
26000000: global: f26=0x00000000
26000000: global: f27=0x00000000
26000000: global: f28=0x00000000
26000000: global: f29=0x00000000
26000000: global: f30=0x00000000
26000000: global: f31=0x00000000
26000000: system.cpu.memory: Log4GUI: memory: 26000000: 0: 100d0: addi x7, x0, 31
26000000: system.cpu.execute: Log4GUI: execute: 26000000: 0: 100d4: slli x9, x7, 2: 0
26000000: system.cpu.decode: Log4GUI: decode: 26000000: 0: 100d8: blt x7, x0, 88
26000000: system.cpu.fetch1: Log4GUI: fetch1: 26000000: 0: 100dc: <assembly>
27000000: system.cpu.writeback: Log4GUI: writeback: 27000000: 0: 100d0: addi x7, x0, 31
27000000: system.cpu.writeback: REGISTERS
27000000: global: x0=0x00000000
27000000: global: x1=0x0001113c
27000000: global: x2=0x000111bc
27000000: global: x3=0x0001123c
27000000: global: x4=0x000112bc
27000000: global: x5=0x0001133c
27000000: global: x6=0x000113bc
27000000: global: x7=0x0000001f
27000000: global: x8=0x00000000
27000000: global: x9=0x00000000
27000000: global: x10=0x00000000
27000000: global: x11=0x00000000
27000000: global: x12=0x00000000
27000000: global: x13=0x00000000
27000000: global: x14=0x00000000
27000000: global: x15=0x00000000
27000000: global: x16=0x00000000
27000000: global: x17=0x00000000
27000000: global: x18=0x00000000
27000000: global: x19=0x00000000
27000000: global: x20=0x00000000
27000000: global: x21=0x00000000
27000000: global: x22=0x00000000
27000000: global: x23=0x00000000
27000000: global: x24=0x00000000
27000000: global: x25=0x00000000
27000000: global: x26=0x00000000
27000000: global: x27=0x00000000
27000000: global: x28=0x00000000
27000000: global: x29=0x00000000
27000000: global: x30=0x00000000
27000000: global: x31=0x00000000
27000000: global: f0=0x00000000
27000000: global: f1=0x40200000
27000000: global: f2=0x00000000
27000000: global: f3=0x00000000
27000000: global: f4=0x00000000
27000000: global: f5=0x00000000
27000000: global: f6=0x00000000
27000000: global: f7=0x00000000
27000000: global: f8=0x00000000
27000000: global: f9=0x00000000
27000000: global: f10=0x00000000
27000000: global: f11=0x00000000
27000000: global: f12=0x00000000
27000000: global: f13=0x00000000
27000000: global: f14=0x00000000
27000000: global: f15=0x00000000
27000000: global: f16=0x00000000
27000000: global: f17=0x00000000
27000000: global: f18=0x00000000
27000000: global: f19=0x00000000
27000000: global: f20=0x00000000
27000000: global: f21=0x00000000
27000000: global: f22=0x00000000
27000000: global: f23=0x00000000
27000000: global: f24=0x00000000
27000000: global: f25=0x00000000
27000000: global: f26=0x00000000
27000000: global: f27=0x00000000
27000000: global: f28=0x00000000
27000000: global: f29=0x00000000
27000000: global: f30=0x00000000
27000000: global: f31=0x00000000
27000000: system.cpu.memory: Log4GUI: memory: 27000000: 0: 100d4: slli x9, x7, 2
27000000: system.cpu.execute: Log4GUI: execute: 27000000: 0: 100d8: blt x7, x0, 88: 0
27000000: system.cpu.decode: Log4GUI: decode: 27000000: 0: 100dc: add x10, x9, x1
27000000: system.cpu.fetch1: Log4GUI: fetch1: 27000000: 0: 100e0: <assembly>
28000000: system.cpu.writeback: Log4GUI: writeback: 28000000: 0: 100d4: slli x9, x7, 2
28000000: system.cpu.writeback: REGISTERS
28000000: global: x0=0x00000000
28000000: global: x1=0x0001113c
28000000: global: x2=0x000111bc
28000000: global: x3=0x0001123c
28000000: global: x4=0x000112bc
28000000: global: x5=0x0001133c
28000000: global: x6=0x000113bc
28000000: global: x7=0x0000001f
28000000: global: x8=0x00000000
28000000: global: x9=0x0000007c
28000000: global: x10=0x00000000
28000000: global: x11=0x00000000
28000000: global: x12=0x00000000
28000000: global: x13=0x00000000
28000000: global: x14=0x00000000
28000000: global: x15=0x00000000
28000000: global: x16=0x00000000
28000000: global: x17=0x00000000
28000000: global: x18=0x00000000
28000000: global: x19=0x00000000
28000000: global: x20=0x00000000
28000000: global: x21=0x00000000
28000000: global: x22=0x00000000
28000000: global: x23=0x00000000
28000000: global: x24=0x00000000
28000000: global: x25=0x00000000
28000000: global: x26=0x00000000
28000000: global: x27=0x00000000
28000000: global: x28=0x00000000
28000000: global: x29=0x00000000
28000000: global: x30=0x00000000
28000000: global: x31=0x00000000
28000000: global: f0=0x00000000
28000000: global: f1=0x40200000
28000000: global: f2=0x00000000
28000000: global: f3=0x00000000
28000000: global: f4=0x00000000
28000000: global: f5=0x00000000
28000000: global: f6=0x00000000
28000000: global: f7=0x00000000
28000000: global: f8=0x00000000
28000000: global: f9=0x00000000
28000000: global: f10=0x00000000
28000000: global: f11=0x00000000
28000000: global: f12=0x00000000
28000000: global: f13=0x00000000
28000000: global: f14=0x00000000
28000000: global: f15=0x00000000
28000000: global: f16=0x00000000
28000000: global: f17=0x00000000
28000000: global: f18=0x00000000
28000000: global: f19=0x00000000
28000000: global: f20=0x00000000
28000000: global: f21=0x00000000
28000000: global: f22=0x00000000
28000000: global: f23=0x00000000
28000000: global: f24=0x00000000
28000000: global: f25=0x00000000
28000000: global: f26=0x00000000
28000000: global: f27=0x00000000
28000000: global: f28=0x00000000
28000000: global: f29=0x00000000
28000000: global: f30=0x00000000
28000000: global: f31=0x00000000
28000000: system.cpu.memory: Log4GUI: memory: 28000000: 0: 100d8: blt x7, x0, 88
28000000: system.cpu.execute: Log4GUI: execute: 28000000: 0: 100dc: add x10, x9, x1: 0
28000000: system.cpu.decode: Log4GUI: decode: 28000000: 0: 100e0: flw f1, 0(x10)
28000000: system.cpu.fetch1: Log4GUI: fetch1: 28000000: 0: 100e4: <assembly>
29000000: system.cpu.writeback: Log4GUI: writeback: 29000000: 0: 100d8: blt x7, x0, 88
29000000: system.cpu.writeback: REGISTERS
29000000: global: x0=0x00000000
29000000: global: x1=0x0001113c
29000000: global: x2=0x000111bc
29000000: global: x3=0x0001123c
29000000: global: x4=0x000112bc
29000000: global: x5=0x0001133c
29000000: global: x6=0x000113bc
29000000: global: x7=0x0000001f
29000000: global: x8=0x00000000
29000000: global: x9=0x0000007c
29000000: global: x10=0x00000000
29000000: global: x11=0x00000000
29000000: global: x12=0x00000000
29000000: global: x13=0x00000000
29000000: global: x14=0x00000000
29000000: global: x15=0x00000000
29000000: global: x16=0x00000000
29000000: global: x17=0x00000000
29000000: global: x18=0x00000000
29000000: global: x19=0x00000000
29000000: global: x20=0x00000000
29000000: global: x21=0x00000000
29000000: global: x22=0x00000000
29000000: global: x23=0x00000000
29000000: global: x24=0x00000000
29000000: global: x25=0x00000000
29000000: global: x26=0x00000000
29000000: global: x27=0x00000000
29000000: global: x28=0x00000000
29000000: global: x29=0x00000000
29000000: global: x30=0x00000000
29000000: global: x31=0x00000000
29000000: global: f0=0x00000000
29000000: global: f1=0x40200000
29000000: global: f2=0x00000000
29000000: global: f3=0x00000000
29000000: global: f4=0x00000000
29000000: global: f5=0x00000000
29000000: global: f6=0x00000000
29000000: global: f7=0x00000000
29000000: global: f8=0x00000000
29000000: global: f9=0x00000000
29000000: global: f10=0x00000000
29000000: global: f11=0x00000000
29000000: global: f12=0x00000000
29000000: global: f13=0x00000000
29000000: global: f14=0x00000000
29000000: global: f15=0x00000000
29000000: global: f16=0x00000000
29000000: global: f17=0x00000000
29000000: global: f18=0x00000000
29000000: global: f19=0x00000000
29000000: global: f20=0x00000000
29000000: global: f21=0x00000000
29000000: global: f22=0x00000000
29000000: global: f23=0x00000000
29000000: global: f24=0x00000000
29000000: global: f25=0x00000000
29000000: global: f26=0x00000000
29000000: global: f27=0x00000000
29000000: global: f28=0x00000000
29000000: global: f29=0x00000000
29000000: global: f30=0x00000000
29000000: global: f31=0x00000000
29000000: system.cpu.memory: Log4GUI: memory: 29000000: 0: 100dc: add x10, x9, x1
29000000: system.cpu.execute: Log4GUI: execute: 29000000: 0: 100e0: flw f1, 0(x10): 0
29000000: system.cpu.decode: Log4GUI: decode: 29000000: 0: 100e4: add x10, x9, x2
29000000: system.cpu.fetch1: Log4GUI: fetch1: 29000000: 0: 100e8: <assembly>
30000000: system.cpu.writeback: Log4GUI: writeback: 30000000: 0: 100dc: add x10, x9, x1
30000000: system.cpu.writeback: REGISTERS
30000000: global: x0=0x00000000
30000000: global: x1=0x0001113c
30000000: global: x2=0x000111bc
30000000: global: x3=0x0001123c
30000000: global: x4=0x000112bc
30000000: global: x5=0x0001133c
30000000: global: x6=0x000113bc
30000000: global: x7=0x0000001f
30000000: global: x8=0x00000000
30000000: global: x9=0x0000007c
30000000: global: x10=0x000111b8
30000000: global: x11=0x00000000
30000000: global: x12=0x00000000
30000000: global: x13=0x00000000
30000000: global: x14=0x00000000
30000000: global: x15=0x00000000
30000000: global: x16=0x00000000
30000000: global: x17=0x00000000
30000000: global: x18=0x00000000
30000000: global: x19=0x00000000
30000000: global: x20=0x00000000
30000000: global: x21=0x00000000
30000000: global: x22=0x00000000
30000000: global: x23=0x00000000
30000000: global: x24=0x00000000
30000000: global: x25=0x00000000
30000000: global: x26=0x00000000
30000000: global: x27=0x00000000
30000000: global: x28=0x00000000
30000000: global: x29=0x00000000
30000000: global: x30=0x00000000
30000000: global: x31=0x00000000
30000000: global: f0=0x00000000
30000000: global: f1=0x40200000
30000000: global: f2=0x00000000
30000000: global: f3=0x00000000
30000000: global: f4=0x00000000
30000000: global: f5=0x00000000
30000000: global: f6=0x00000000
30000000: global: f7=0x00000000
30000000: global: f8=0x00000000
30000000: global: f9=0x00000000
30000000: global: f10=0x00000000
30000000: global: f11=0x00000000
30000000: global: f12=0x00000000
30000000: global: f13=0x00000000
30000000: global: f14=0x00000000
30000000: global: f15=0x00000000
30000000: global: f16=0x00000000
30000000: global: f17=0x00000000
30000000: global: f18=0x00000000
30000000: global: f19=0x00000000
30000000: global: f20=0x00000000
30000000: global: f21=0x00000000
30000000: global: f22=0x00000000
30000000: global: f23=0x00000000
30000000: global: f24=0x00000000
30000000: global: f25=0x00000000
30000000: global: f26=0x00000000
30000000: global: f27=0x00000000
30000000: global: f28=0x00000000
30000000: global: f29=0x00000000
30000000: global: f30=0x00000000
30000000: global: f31=0x00000000
30000000: system.cpu.memory: Log4GUI: memory: 30000000: 0: 100e0: flw f1, 0(x10)
30000000: system.cpu.execute: Log4GUI: execute: 30000000: 0: 100e4: add x10, x9, x2: 0
30000000: system.cpu.decode: Log4GUI: decode: 30000000: 0: 100e8: flw f2, 0(x10)
30000000: system.cpu.fetch1: Log4GUI: fetch1: 30000000: 0: 100ec: <assembly>
31000000: system.cpu.writeback: Log4GUI: writeback: 31000000: 0: 100e0: flw f1, 0(x10)
31000000: system.cpu.writeback: REGISTERS
31000000: global: x0=0x00000000
31000000: global: x1=0x0001113c
31000000: global: x2=0x000111bc
31000000: global: x3=0x0001123c
31000000: global: x4=0x000112bc
31000000: global: x5=0x0001133c
31000000: global: x6=0x000113bc
31000000: global: x7=0x0000001f
31000000: global: x8=0x00000000
31000000: global: x9=0x0000007c
31000000: global: x10=0x000111b8
31000000: global: x11=0x00000000
31000000: global: x12=0x00000000
31000000: global: x13=0x00000000
31000000: global: x14=0x00000000
31000000: global: x15=0x00000000
31000000: global: x16=0x00000000
31000000: global: x17=0x00000000
31000000: global: x18=0x00000000
31000000: global: x19=0x00000000
31000000: global: x20=0x00000000
31000000: global: x21=0x00000000
31000000: global: x22=0x00000000
31000000: global: x23=0x00000000
31000000: global: x24=0x00000000
31000000: global: x25=0x00000000
31000000: global: x26=0x00000000
31000000: global: x27=0x00000000
31000000: global: x28=0x00000000
31000000: global: x29=0x00000000
31000000: global: x30=0x00000000
31000000: global: x31=0x00000000
31000000: global: f0=0x00000000
31000000: global: f1=0x40cccccd
31000000: global: f2=0x00000000
31000000: global: f3=0x00000000
31000000: global: f4=0x00000000
31000000: global: f5=0x00000000
31000000: global: f6=0x00000000
31000000: global: f7=0x00000000
31000000: global: f8=0x00000000
31000000: global: f9=0x00000000
31000000: global: f10=0x00000000
31000000: global: f11=0x00000000
31000000: global: f12=0x00000000
31000000: global: f13=0x00000000
31000000: global: f14=0x00000000
31000000: global: f15=0x00000000
31000000: global: f16=0x00000000
31000000: global: f17=0x00000000
31000000: global: f18=0x00000000
31000000: global: f19=0x00000000
31000000: global: f20=0x00000000
31000000: global: f21=0x00000000
31000000: global: f22=0x00000000
31000000: global: f23=0x00000000
31000000: global: f24=0x00000000
31000000: global: f25=0x00000000
31000000: global: f26=0x00000000
31000000: global: f27=0x00000000
31000000: global: f28=0x00000000
31000000: global: f29=0x00000000
31000000: global: f30=0x00000000
31000000: global: f31=0x00000000
31000000: system.cpu.memory: Log4GUI: memory: 31000000: 0: 100e4: add x10, x9, x2
31000000: system.cpu.execute: Log4GUI: execute: 31000000: 0: 100e8: flw f2, 0(x10): 0
31000000: system.cpu.decode: Log4GUI: decode: 31000000: 0: 100ec: add x10, x9, x3
31000000: system.cpu.fetch1: Log4GUI: fetch1: 31000000: 0: 100f0: <assembly>
32000000: system.cpu.writeback: Log4GUI: writeback: 32000000: 0: 100e4: add x10, x9, x2
32000000: system.cpu.writeback: REGISTERS
32000000: global: x0=0x00000000
32000000: global: x1=0x0001113c
32000000: global: x2=0x000111bc
32000000: global: x3=0x0001123c
32000000: global: x4=0x000112bc
32000000: global: x5=0x0001133c
32000000: global: x6=0x000113bc
32000000: global: x7=0x0000001f
32000000: global: x8=0x00000000
32000000: global: x9=0x0000007c
32000000: global: x10=0x00011238
32000000: global: x11=0x00000000
32000000: global: x12=0x00000000
32000000: global: x13=0x00000000
32000000: global: x14=0x00000000
32000000: global: x15=0x00000000
32000000: global: x16=0x00000000
32000000: global: x17=0x00000000
32000000: global: x18=0x00000000
32000000: global: x19=0x00000000
32000000: global: x20=0x00000000
32000000: global: x21=0x00000000
32000000: global: x22=0x00000000
32000000: global: x23=0x00000000
32000000: global: x24=0x00000000
32000000: global: x25=0x00000000
32000000: global: x26=0x00000000
32000000: global: x27=0x00000000
32000000: global: x28=0x00000000
32000000: global: x29=0x00000000
32000000: global: x30=0x00000000
32000000: global: x31=0x00000000
32000000: global: f0=0x00000000
32000000: global: f1=0x40cccccd
32000000: global: f2=0x00000000
32000000: global: f3=0x00000000
32000000: global: f4=0x00000000
32000000: global: f5=0x00000000
32000000: global: f6=0x00000000
32000000: global: f7=0x00000000
32000000: global: f8=0x00000000
32000000: global: f9=0x00000000
32000000: global: f10=0x00000000
32000000: global: f11=0x00000000
32000000: global: f12=0x00000000
32000000: global: f13=0x00000000
32000000: global: f14=0x00000000
32000000: global: f15=0x00000000
32000000: global: f16=0x00000000
32000000: global: f17=0x00000000
32000000: global: f18=0x00000000
32000000: global: f19=0x00000000
32000000: global: f20=0x00000000
32000000: global: f21=0x00000000
32000000: global: f22=0x00000000
32000000: global: f23=0x00000000
32000000: global: f24=0x00000000
32000000: global: f25=0x00000000
32000000: global: f26=0x00000000
32000000: global: f27=0x00000000
32000000: global: f28=0x00000000
32000000: global: f29=0x00000000
32000000: global: f30=0x00000000
32000000: global: f31=0x00000000
32000000: system.cpu.memory: Log4GUI: memory: 32000000: 0: 100e8: flw f2, 0(x10)
32000000: system.cpu.execute: Log4GUI: execute: 32000000: 0: 100ec: add x10, x9, x3: 0
32000000: system.cpu.decode: Log4GUI: decode: 32000000: 0: 100f0: flw f3, 0(x10)
32000000: system.cpu.fetch1: Log4GUI: fetch1: 32000000: 0: 100f4: <assembly>
33000000: system.cpu.writeback: Log4GUI: writeback: 33000000: 0: 100e8: flw f2, 0(x10)
33000000: system.cpu.writeback: REGISTERS
33000000: global: x0=0x00000000
33000000: global: x1=0x0001113c
33000000: global: x2=0x000111bc
33000000: global: x3=0x0001123c
33000000: global: x4=0x000112bc
33000000: global: x5=0x0001133c
33000000: global: x6=0x000113bc
33000000: global: x7=0x0000001f
33000000: global: x8=0x00000000
33000000: global: x9=0x0000007c
33000000: global: x10=0x00011238
33000000: global: x11=0x00000000
33000000: global: x12=0x00000000
33000000: global: x13=0x00000000
33000000: global: x14=0x00000000
33000000: global: x15=0x00000000
33000000: global: x16=0x00000000
33000000: global: x17=0x00000000
33000000: global: x18=0x00000000
33000000: global: x19=0x00000000
33000000: global: x20=0x00000000
33000000: global: x21=0x00000000
33000000: global: x22=0x00000000
33000000: global: x23=0x00000000
33000000: global: x24=0x00000000
33000000: global: x25=0x00000000
33000000: global: x26=0x00000000
33000000: global: x27=0x00000000
33000000: global: x28=0x00000000
33000000: global: x29=0x00000000
33000000: global: x30=0x00000000
33000000: global: x31=0x00000000
33000000: global: f0=0x00000000
33000000: global: f1=0x40cccccd
33000000: global: f2=0x40900000
33000000: global: f3=0x00000000
33000000: global: f4=0x00000000
33000000: global: f5=0x00000000
33000000: global: f6=0x00000000
33000000: global: f7=0x00000000
33000000: global: f8=0x00000000
33000000: global: f9=0x00000000
33000000: global: f10=0x00000000
33000000: global: f11=0x00000000
33000000: global: f12=0x00000000
33000000: global: f13=0x00000000
33000000: global: f14=0x00000000
33000000: global: f15=0x00000000
33000000: global: f16=0x00000000
33000000: global: f17=0x00000000
33000000: global: f18=0x00000000
33000000: global: f19=0x00000000
33000000: global: f20=0x00000000
33000000: global: f21=0x00000000
33000000: global: f22=0x00000000
33000000: global: f23=0x00000000
33000000: global: f24=0x00000000
33000000: global: f25=0x00000000
33000000: global: f26=0x00000000
33000000: global: f27=0x00000000
33000000: global: f28=0x00000000
33000000: global: f29=0x00000000
33000000: global: f30=0x00000000
33000000: global: f31=0x00000000
33000000: system.cpu.memory: Log4GUI: memory: 33000000: 0: 100ec: add x10, x9, x3
33000000: system.cpu.execute: Log4GUI: execute: 33000000: 0: 100f0: flw f3, 0(x10): 0
33000000: system.cpu.decode: Log4GUI: decode: 33000000: 0: 100f4: fmul_s f7, f1, f1
33000000: system.cpu.fetch1: Log4GUI: fetch1: 33000000: 0: 100f8: <assembly>
34000000: system.cpu.writeback: Log4GUI: writeback: 34000000: 0: 100ec: add x10, x9, x3
34000000: system.cpu.writeback: REGISTERS
34000000: global: x0=0x00000000
34000000: global: x1=0x0001113c
34000000: global: x2=0x000111bc
34000000: global: x3=0x0001123c
34000000: global: x4=0x000112bc
34000000: global: x5=0x0001133c
34000000: global: x6=0x000113bc
34000000: global: x7=0x0000001f
34000000: global: x8=0x00000000
34000000: global: x9=0x0000007c
34000000: global: x10=0x000112b8
34000000: global: x11=0x00000000
34000000: global: x12=0x00000000
34000000: global: x13=0x00000000
34000000: global: x14=0x00000000
34000000: global: x15=0x00000000
34000000: global: x16=0x00000000
34000000: global: x17=0x00000000
34000000: global: x18=0x00000000
34000000: global: x19=0x00000000
34000000: global: x20=0x00000000
34000000: global: x21=0x00000000
34000000: global: x22=0x00000000
34000000: global: x23=0x00000000
34000000: global: x24=0x00000000
34000000: global: x25=0x00000000
34000000: global: x26=0x00000000
34000000: global: x27=0x00000000
34000000: global: x28=0x00000000
34000000: global: x29=0x00000000
34000000: global: x30=0x00000000
34000000: global: x31=0x00000000
34000000: global: f0=0x00000000
34000000: global: f1=0x40cccccd
34000000: global: f2=0x40900000
34000000: global: f3=0x00000000
34000000: global: f4=0x00000000
34000000: global: f5=0x00000000
34000000: global: f6=0x00000000
34000000: global: f7=0x00000000
34000000: global: f8=0x00000000
34000000: global: f9=0x00000000
34000000: global: f10=0x00000000
34000000: global: f11=0x00000000
34000000: global: f12=0x00000000
34000000: global: f13=0x00000000
34000000: global: f14=0x00000000
34000000: global: f15=0x00000000
34000000: global: f16=0x00000000
34000000: global: f17=0x00000000
34000000: global: f18=0x00000000
34000000: global: f19=0x00000000
34000000: global: f20=0x00000000
34000000: global: f21=0x00000000
34000000: global: f22=0x00000000
34000000: global: f23=0x00000000
34000000: global: f24=0x00000000
34000000: global: f25=0x00000000
34000000: global: f26=0x00000000
34000000: global: f27=0x00000000
34000000: global: f28=0x00000000
34000000: global: f29=0x00000000
34000000: global: f30=0x00000000
34000000: global: f31=0x00000000
34000000: system.cpu.memory: Log4GUI: memory: 34000000: 0: 100f0: flw f3, 0(x10)
34000000: system.cpu.execute: Log4GUI: execute: 34000000: 0: 100f4: fmul_s f7, f1, f1: 4
34000000: system.cpu.decode: Log4GUI: decode: 34000000: 0: 100f8: fsub_s f7, f7, f2
34000000: system.cpu.fetch1: Log4GUI: fetch1: 34000000: 0: 100fc: <assembly>
35000000: system.cpu.writeback: Log4GUI: writeback: 35000000: 0: 100f0: flw f3, 0(x10)
35000000: system.cpu.writeback: REGISTERS
35000000: global: x0=0x00000000
35000000: global: x1=0x0001113c
35000000: global: x2=0x000111bc
35000000: global: x3=0x0001123c
35000000: global: x4=0x000112bc
35000000: global: x5=0x0001133c
35000000: global: x6=0x000113bc
35000000: global: x7=0x0000001f
35000000: global: x8=0x00000000
35000000: global: x9=0x0000007c
35000000: global: x10=0x000112b8
35000000: global: x11=0x00000000
35000000: global: x12=0x00000000
35000000: global: x13=0x00000000
35000000: global: x14=0x00000000
35000000: global: x15=0x00000000
35000000: global: x16=0x00000000
35000000: global: x17=0x00000000
35000000: global: x18=0x00000000
35000000: global: x19=0x00000000
35000000: global: x20=0x00000000
35000000: global: x21=0x00000000
35000000: global: x22=0x00000000
35000000: global: x23=0x00000000
35000000: global: x24=0x00000000
35000000: global: x25=0x00000000
35000000: global: x26=0x00000000
35000000: global: x27=0x00000000
35000000: global: x28=0x00000000
35000000: global: x29=0x00000000
35000000: global: x30=0x00000000
35000000: global: x31=0x00000000
35000000: global: f0=0x00000000
35000000: global: f1=0x40cccccd
35000000: global: f2=0x40900000
35000000: global: f3=0x40400000
35000000: global: f4=0x00000000
35000000: global: f5=0x00000000
35000000: global: f6=0x00000000
35000000: global: f7=0x00000000
35000000: global: f8=0x00000000
35000000: global: f9=0x00000000
35000000: global: f10=0x00000000
35000000: global: f11=0x00000000
35000000: global: f12=0x00000000
35000000: global: f13=0x00000000
35000000: global: f14=0x00000000
35000000: global: f15=0x00000000
35000000: global: f16=0x00000000
35000000: global: f17=0x00000000
35000000: global: f18=0x00000000
35000000: global: f19=0x00000000
35000000: global: f20=0x00000000
35000000: global: f21=0x00000000
35000000: global: f22=0x00000000
35000000: global: f23=0x00000000
35000000: global: f24=0x00000000
35000000: global: f25=0x00000000
35000000: global: f26=0x00000000
35000000: global: f27=0x00000000
35000000: global: f28=0x00000000
35000000: global: f29=0x00000000
35000000: global: f30=0x00000000
35000000: global: f31=0x00000000
35000000: system.cpu.execute: Log4GUI: execute: 35000000: 0: 100f4: fmul_s f7, f1, f1: 4
35000000: system.cpu.decode: Log4GUI: decode: 35000000: 1: 100f8: fsub_s f7, f7, f2
35000000: system.cpu.fetch1: Log4GUI: fetch1: 35000000: 1: 100fc: <assembly>
36000000: system.cpu.execute: Log4GUI: execute: 36000000: 0: 100f4: fmul_s f7, f1, f1: 4
36000000: system.cpu.decode: Log4GUI: decode: 36000000: 1: 100f8: fsub_s f7, f7, f2
36000000: system.cpu.fetch1: Log4GUI: fetch1: 36000000: 1: 100fc: <assembly>
37000000: system.cpu.execute: Log4GUI: execute: 37000000: 0: 100f4: fmul_s f7, f1, f1: 4
37000000: system.cpu.decode: Log4GUI: decode: 37000000: 1: 100f8: fsub_s f7, f7, f2
37000000: system.cpu.fetch1: Log4GUI: fetch1: 37000000: 1: 100fc: <assembly>
38000000: system.cpu.memory: Log4GUI: memory: 38000000: 0: 100f4: fmul_s f7, f1, f1
38000000: system.cpu.execute: Log4GUI: execute: 38000000: 0: 100f8: fsub_s f7, f7, f2: 3
38000000: system.cpu.decode: Log4GUI: decode: 38000000: 0: 100fc: add x8, x9, x4
38000000: system.cpu.fetch1: Log4GUI: fetch1: 38000000: 0: 10100: <assembly>
39000000: system.cpu.writeback: Log4GUI: writeback: 39000000: 0: 100f4: fmul_s f7, f1, f1
39000000: system.cpu.writeback: REGISTERS
39000000: global: x0=0x00000000
39000000: global: x1=0x0001113c
39000000: global: x2=0x000111bc
39000000: global: x3=0x0001123c
39000000: global: x4=0x000112bc
39000000: global: x5=0x0001133c
39000000: global: x6=0x000113bc
39000000: global: x7=0x0000001f
39000000: global: x8=0x00000000
39000000: global: x9=0x0000007c
39000000: global: x10=0x000112b8
39000000: global: x11=0x00000000
39000000: global: x12=0x00000000
39000000: global: x13=0x00000000
39000000: global: x14=0x00000000
39000000: global: x15=0x00000000
39000000: global: x16=0x00000000
39000000: global: x17=0x00000000
39000000: global: x18=0x00000000
39000000: global: x19=0x00000000
39000000: global: x20=0x00000000
39000000: global: x21=0x00000000
39000000: global: x22=0x00000000
39000000: global: x23=0x00000000
39000000: global: x24=0x00000000
39000000: global: x25=0x00000000
39000000: global: x26=0x00000000
39000000: global: x27=0x00000000
39000000: global: x28=0x00000000
39000000: global: x29=0x00000000
39000000: global: x30=0x00000000
39000000: global: x31=0x00000000
39000000: global: f0=0x00000000
39000000: global: f1=0x40cccccd
39000000: global: f2=0x40900000
39000000: global: f3=0x40400000
39000000: global: f4=0x00000000
39000000: global: f5=0x00000000
39000000: global: f6=0x00000000
39000000: global: f7=0x4223d70b
39000000: global: f8=0x00000000
39000000: global: f9=0x00000000
39000000: global: f10=0x00000000
39000000: global: f11=0x00000000
39000000: global: f12=0x00000000
39000000: global: f13=0x00000000
39000000: global: f14=0x00000000
39000000: global: f15=0x00000000
39000000: global: f16=0x00000000
39000000: global: f17=0x00000000
39000000: global: f18=0x00000000
39000000: global: f19=0x00000000
39000000: global: f20=0x00000000
39000000: global: f21=0x00000000
39000000: global: f22=0x00000000
39000000: global: f23=0x00000000
39000000: global: f24=0x00000000
39000000: global: f25=0x00000000
39000000: global: f26=0x00000000
39000000: global: f27=0x00000000
39000000: global: f28=0x00000000
39000000: global: f29=0x00000000
39000000: global: f30=0x00000000
39000000: global: f31=0x00000000
39000000: system.cpu.execute: Log4GUI: execute: 39000000: 0: 100fc: add x8, x9, x4: 0
39000000: system.cpu.execute: Log4GUI: execute: 39000000: 0: 100f8: fsub_s f7, f7, f2: 3
39000000: system.cpu.decode: Log4GUI: decode: 39000000: 0: 10100: fsw f7, 0(x8)
39000000: system.cpu.fetch1: Log4GUI: fetch1: 39000000: 0: 10104: <assembly>
40000000: system.cpu.memory: Log4GUI: memory: 40000000: 0: 100f8: fsub_s f7, f7, f2
40000000: system.cpu.decode: Log4GUI: decode: 40000000: 1: 10100: fsw f7, 0(x8)
40000000: system.cpu.fetch1: Log4GUI: fetch1: 40000000: 1: 10104: <assembly>
41000000: system.cpu.writeback: Log4GUI: writeback: 41000000: 0: 100f8: fsub_s f7, f7, f2
41000000: system.cpu.writeback: REGISTERS
41000000: global: x0=0x00000000
41000000: global: x1=0x0001113c
41000000: global: x2=0x000111bc
41000000: global: x3=0x0001123c
41000000: global: x4=0x000112bc
41000000: global: x5=0x0001133c
41000000: global: x6=0x000113bc
41000000: global: x7=0x0000001f
41000000: global: x8=0x00000000
41000000: global: x9=0x0000007c
41000000: global: x10=0x000112b8
41000000: global: x11=0x00000000
41000000: global: x12=0x00000000
41000000: global: x13=0x00000000
41000000: global: x14=0x00000000
41000000: global: x15=0x00000000
41000000: global: x16=0x00000000
41000000: global: x17=0x00000000
41000000: global: x18=0x00000000
41000000: global: x19=0x00000000
41000000: global: x20=0x00000000
41000000: global: x21=0x00000000
41000000: global: x22=0x00000000
41000000: global: x23=0x00000000
41000000: global: x24=0x00000000
41000000: global: x25=0x00000000
41000000: global: x26=0x00000000
41000000: global: x27=0x00000000
41000000: global: x28=0x00000000
41000000: global: x29=0x00000000
41000000: global: x30=0x00000000
41000000: global: x31=0x00000000
41000000: global: f0=0x00000000
41000000: global: f1=0x40cccccd
41000000: global: f2=0x40900000
41000000: global: f3=0x40400000
41000000: global: f4=0x00000000
41000000: global: f5=0x00000000
41000000: global: f6=0x00000000
41000000: global: f7=0x4211d70b
41000000: global: f8=0x00000000
41000000: global: f9=0x00000000
41000000: global: f10=0x00000000
41000000: global: f11=0x00000000
41000000: global: f12=0x00000000
41000000: global: f13=0x00000000
41000000: global: f14=0x00000000
41000000: global: f15=0x00000000
41000000: global: f16=0x00000000
41000000: global: f17=0x00000000
41000000: global: f18=0x00000000
41000000: global: f19=0x00000000
41000000: global: f20=0x00000000
41000000: global: f21=0x00000000
41000000: global: f22=0x00000000
41000000: global: f23=0x00000000
41000000: global: f24=0x00000000
41000000: global: f25=0x00000000
41000000: global: f26=0x00000000
41000000: global: f27=0x00000000
41000000: global: f28=0x00000000
41000000: global: f29=0x00000000
41000000: global: f30=0x00000000
41000000: global: f31=0x00000000
41000000: system.cpu.memory: Log4GUI: memory: 41000000: 0: 100fc: add x8, x9, x4
41000000: system.cpu.execute: Log4GUI: execute: 41000000: 0: 10100: fsw f7, 0(x8): 0
41000000: system.cpu.decode: Log4GUI: decode: 41000000: 0: 10104: fdiv_s f8, f7, f3
41000000: system.cpu.fetch1: Log4GUI: fetch1: 41000000: 0: 10108: <assembly>
42000000: system.cpu.writeback: Log4GUI: writeback: 42000000: 0: 100fc: add x8, x9, x4
42000000: system.cpu.writeback: REGISTERS
42000000: global: x0=0x00000000
42000000: global: x1=0x0001113c
42000000: global: x2=0x000111bc
42000000: global: x3=0x0001123c
42000000: global: x4=0x000112bc
42000000: global: x5=0x0001133c
42000000: global: x6=0x000113bc
42000000: global: x7=0x0000001f
42000000: global: x8=0x00011338
42000000: global: x9=0x0000007c
42000000: global: x10=0x000112b8
42000000: global: x11=0x00000000
42000000: global: x12=0x00000000
42000000: global: x13=0x00000000
42000000: global: x14=0x00000000
42000000: global: x15=0x00000000
42000000: global: x16=0x00000000
42000000: global: x17=0x00000000
42000000: global: x18=0x00000000
42000000: global: x19=0x00000000
42000000: global: x20=0x00000000
42000000: global: x21=0x00000000
42000000: global: x22=0x00000000
42000000: global: x23=0x00000000
42000000: global: x24=0x00000000
42000000: global: x25=0x00000000
42000000: global: x26=0x00000000
42000000: global: x27=0x00000000
42000000: global: x28=0x00000000
42000000: global: x29=0x00000000
42000000: global: x30=0x00000000
42000000: global: x31=0x00000000
42000000: global: f0=0x00000000
42000000: global: f1=0x40cccccd
42000000: global: f2=0x40900000
42000000: global: f3=0x40400000
42000000: global: f4=0x00000000
42000000: global: f5=0x00000000
42000000: global: f6=0x00000000
42000000: global: f7=0x4211d70b
42000000: global: f8=0x00000000
42000000: global: f9=0x00000000
42000000: global: f10=0x00000000
42000000: global: f11=0x00000000
42000000: global: f12=0x00000000
42000000: global: f13=0x00000000
42000000: global: f14=0x00000000
42000000: global: f15=0x00000000
42000000: global: f16=0x00000000
42000000: global: f17=0x00000000
42000000: global: f18=0x00000000
42000000: global: f19=0x00000000
42000000: global: f20=0x00000000
42000000: global: f21=0x00000000
42000000: global: f22=0x00000000
42000000: global: f23=0x00000000
42000000: global: f24=0x00000000
42000000: global: f25=0x00000000
42000000: global: f26=0x00000000
42000000: global: f27=0x00000000
42000000: global: f28=0x00000000
42000000: global: f29=0x00000000
42000000: global: f30=0x00000000
42000000: global: f31=0x00000000
42000000: system.cpu.memory: Log4GUI: memory: 42000000: 0: 10100: fsw f7, 0(x8)
42000000: system.cpu.execute: Log4GUI: execute: 42000000: 0: 10104: fdiv_s f8, f7, f3: 5
42000000: system.cpu.decode: Log4GUI: decode: 42000000: 0: 10108: fsub_s f8, f7, f2
42000000: system.cpu.fetch1: Log4GUI: fetch1: 42000000: 0: 1010c: <assembly>
43000000: system.cpu.writeback: Log4GUI: writeback: 43000000: 0: 10100: fsw f7, 0(x8)
43000000: system.cpu.writeback: REGISTERS
43000000: global: x0=0x00000000
43000000: global: x1=0x0001113c
43000000: global: x2=0x000111bc
43000000: global: x3=0x0001123c
43000000: global: x4=0x000112bc
43000000: global: x5=0x0001133c
43000000: global: x6=0x000113bc
43000000: global: x7=0x0000001f
43000000: global: x8=0x00011338
43000000: global: x9=0x0000007c
43000000: global: x10=0x000112b8
43000000: global: x11=0x00000000
43000000: global: x12=0x00000000
43000000: global: x13=0x00000000
43000000: global: x14=0x00000000
43000000: global: x15=0x00000000
43000000: global: x16=0x00000000
43000000: global: x17=0x00000000
43000000: global: x18=0x00000000
43000000: global: x19=0x00000000
43000000: global: x20=0x00000000
43000000: global: x21=0x00000000
43000000: global: x22=0x00000000
43000000: global: x23=0x00000000
43000000: global: x24=0x00000000
43000000: global: x25=0x00000000
43000000: global: x26=0x00000000
43000000: global: x27=0x00000000
43000000: global: x28=0x00000000
43000000: global: x29=0x00000000
43000000: global: x30=0x00000000
43000000: global: x31=0x00000000
43000000: global: f0=0x00000000
43000000: global: f1=0x40cccccd
43000000: global: f2=0x40900000
43000000: global: f3=0x40400000
43000000: global: f4=0x00000000
43000000: global: f5=0x00000000
43000000: global: f6=0x00000000
43000000: global: f7=0x4211d70b
43000000: global: f8=0x00000000
43000000: global: f9=0x00000000
43000000: global: f10=0x00000000
43000000: global: f11=0x00000000
43000000: global: f12=0x00000000
43000000: global: f13=0x00000000
43000000: global: f14=0x00000000
43000000: global: f15=0x00000000
43000000: global: f16=0x00000000
43000000: global: f17=0x00000000
43000000: global: f18=0x00000000
43000000: global: f19=0x00000000
43000000: global: f20=0x00000000
43000000: global: f21=0x00000000
43000000: global: f22=0x00000000
43000000: global: f23=0x00000000
43000000: global: f24=0x00000000
43000000: global: f25=0x00000000
43000000: global: f26=0x00000000
43000000: global: f27=0x00000000
43000000: global: f28=0x00000000
43000000: global: f29=0x00000000
43000000: global: f30=0x00000000
43000000: global: f31=0x00000000
43000000: system.cpu.execute: Log4GUI: execute: 43000000: 0: 10104: fdiv_s f8, f7, f3: 5
43000000: system.cpu.decode: Log4GUI: decode: 43000000: 1: 10108: fsub_s f8, f7, f2
43000000: system.cpu.fetch1: Log4GUI: fetch1: 43000000: 1: 1010c: <assembly>
44000000: system.cpu.execute: Log4GUI: execute: 44000000: 0: 10104: fdiv_s f8, f7, f3: 5
44000000: system.cpu.decode: Log4GUI: decode: 44000000: 1: 10108: fsub_s f8, f7, f2
44000000: system.cpu.fetch1: Log4GUI: fetch1: 44000000: 1: 1010c: <assembly>
45000000: system.cpu.execute: Log4GUI: execute: 45000000: 0: 10104: fdiv_s f8, f7, f3: 5
45000000: system.cpu.decode: Log4GUI: decode: 45000000: 1: 10108: fsub_s f8, f7, f2
45000000: system.cpu.fetch1: Log4GUI: fetch1: 45000000: 1: 1010c: <assembly>
46000000: system.cpu.execute: Log4GUI: execute: 46000000: 0: 10104: fdiv_s f8, f7, f3: 5
46000000: system.cpu.decode: Log4GUI: decode: 46000000: 1: 10108: fsub_s f8, f7, f2
46000000: system.cpu.fetch1: Log4GUI: fetch1: 46000000: 1: 1010c: <assembly>
47000000: system.cpu.execute: Log4GUI: execute: 47000000: 0: 10104: fdiv_s f8, f7, f3: 5
47000000: system.cpu.decode: Log4GUI: decode: 47000000: 1: 10108: fsub_s f8, f7, f2
47000000: system.cpu.fetch1: Log4GUI: fetch1: 47000000: 1: 1010c: <assembly>
48000000: system.cpu.execute: Log4GUI: execute: 48000000: 0: 10104: fdiv_s f8, f7, f3: 5
48000000: system.cpu.decode: Log4GUI: decode: 48000000: 1: 10108: fsub_s f8, f7, f2
48000000: system.cpu.fetch1: Log4GUI: fetch1: 48000000: 1: 1010c: <assembly>
49000000: system.cpu.execute: Log4GUI: execute: 49000000: 0: 10104: fdiv_s f8, f7, f3: 5
49000000: system.cpu.decode: Log4GUI: decode: 49000000: 1: 10108: fsub_s f8, f7, f2
49000000: system.cpu.fetch1: Log4GUI: fetch1: 49000000: 1: 1010c: <assembly>
50000000: system.cpu.memory: Log4GUI: memory: 50000000: 0: 10104: fdiv_s f8, f7, f3
50000000: system.cpu.execute: Log4GUI: execute: 50000000: 0: 10108: fsub_s f8, f7, f2: 3
50000000: system.cpu.decode: Log4GUI: decode: 50000000: 0: 1010c: add x8, x9, x5
50000000: system.cpu.fetch1: Log4GUI: fetch1: 50000000: 0: 10110: <assembly>
51000000: system.cpu.writeback: Log4GUI: writeback: 51000000: 0: 10104: fdiv_s f8, f7, f3
51000000: system.cpu.writeback: REGISTERS
51000000: global: x0=0x00000000
51000000: global: x1=0x0001113c
51000000: global: x2=0x000111bc
51000000: global: x3=0x0001123c
51000000: global: x4=0x000112bc
51000000: global: x5=0x0001133c
51000000: global: x6=0x000113bc
51000000: global: x7=0x0000001f
51000000: global: x8=0x00011338
51000000: global: x9=0x0000007c
51000000: global: x10=0x000112b8
51000000: global: x11=0x00000000
51000000: global: x12=0x00000000
51000000: global: x13=0x00000000
51000000: global: x14=0x00000000
51000000: global: x15=0x00000000
51000000: global: x16=0x00000000
51000000: global: x17=0x00000000
51000000: global: x18=0x00000000
51000000: global: x19=0x00000000
51000000: global: x20=0x00000000
51000000: global: x21=0x00000000
51000000: global: x22=0x00000000
51000000: global: x23=0x00000000
51000000: global: x24=0x00000000
51000000: global: x25=0x00000000
51000000: global: x26=0x00000000
51000000: global: x27=0x00000000
51000000: global: x28=0x00000000
51000000: global: x29=0x00000000
51000000: global: x30=0x00000000
51000000: global: x31=0x00000000
51000000: global: f0=0x00000000
51000000: global: f1=0x40cccccd
51000000: global: f2=0x40900000
51000000: global: f3=0x40400000
51000000: global: f4=0x00000000
51000000: global: f5=0x00000000
51000000: global: f6=0x00000000
51000000: global: f7=0x4211d70b
51000000: global: f8=0x4142740f
51000000: global: f9=0x00000000
51000000: global: f10=0x00000000
51000000: global: f11=0x00000000
51000000: global: f12=0x00000000
51000000: global: f13=0x00000000
51000000: global: f14=0x00000000
51000000: global: f15=0x00000000
51000000: global: f16=0x00000000
51000000: global: f17=0x00000000
51000000: global: f18=0x00000000
51000000: global: f19=0x00000000
51000000: global: f20=0x00000000
51000000: global: f21=0x00000000
51000000: global: f22=0x00000000
51000000: global: f23=0x00000000
51000000: global: f24=0x00000000
51000000: global: f25=0x00000000
51000000: global: f26=0x00000000
51000000: global: f27=0x00000000
51000000: global: f28=0x00000000
51000000: global: f29=0x00000000
51000000: global: f30=0x00000000
51000000: global: f31=0x00000000
51000000: system.cpu.execute: Log4GUI: execute: 51000000: 0: 1010c: add x8, x9, x5: 0
51000000: system.cpu.execute: Log4GUI: execute: 51000000: 0: 10108: fsub_s f8, f7, f2: 3
51000000: system.cpu.decode: Log4GUI: decode: 51000000: 0: 10110: fsw f8, 0(x8)
51000000: system.cpu.fetch1: Log4GUI: fetch1: 51000000: 0: 10114: <assembly>
52000000: system.cpu.memory: Log4GUI: memory: 52000000: 0: 10108: fsub_s f8, f7, f2
52000000: system.cpu.decode: Log4GUI: decode: 52000000: 1: 10110: fsw f8, 0(x8)
52000000: system.cpu.fetch1: Log4GUI: fetch1: 52000000: 1: 10114: <assembly>
53000000: system.cpu.writeback: Log4GUI: writeback: 53000000: 0: 10108: fsub_s f8, f7, f2
53000000: system.cpu.writeback: REGISTERS
53000000: global: x0=0x00000000
53000000: global: x1=0x0001113c
53000000: global: x2=0x000111bc
53000000: global: x3=0x0001123c
53000000: global: x4=0x000112bc
53000000: global: x5=0x0001133c
53000000: global: x6=0x000113bc
53000000: global: x7=0x0000001f
53000000: global: x8=0x00011338
53000000: global: x9=0x0000007c
53000000: global: x10=0x000112b8
53000000: global: x11=0x00000000
53000000: global: x12=0x00000000
53000000: global: x13=0x00000000
53000000: global: x14=0x00000000
53000000: global: x15=0x00000000
53000000: global: x16=0x00000000
53000000: global: x17=0x00000000
53000000: global: x18=0x00000000
[...]
1237000000: global: f24=0x00000000
1237000000: global: f25=0x00000000
1237000000: global: f26=0x00000000
1237000000: global: f27=0x00000000
1237000000: global: f28=0x00000000
1237000000: global: f29=0x00000000
1237000000: global: f30=0x00000000
1237000000: global: f31=0x00000000
1237000000: system.cpu.execute: Log4GUI: execute: 1237000000: 0: 10118: fmul_s f9, f9, f8: 4
1237000000: system.cpu.execute: Log4GUI: execute: 1237000000: 1: 10120: fsw f9, 0(x8): 0
1237000000: system.cpu.decode: Log4GUI: decode: 1237000000: 1: 10124: addi x7, x7, -1
1237000000: system.cpu.fetch1: Log4GUI: fetch1: 1237000000: 1: 10128: <assembly>
1238000000: system.cpu.memory: Log4GUI: memory: 1238000000: 0: 10118: fmul_s f9, f9, f8
1238000000: system.cpu.decode: Log4GUI: decode: 1238000000: 1: 10124: addi x7, x7, -1
1238000000: system.cpu.fetch1: Log4GUI: fetch1: 1238000000: 1: 10128: <assembly>
1239000000: system.cpu.writeback: Log4GUI: writeback: 1239000000: 0: 10118: fmul_s f9, f9, f8
1239000000: system.cpu.writeback: REGISTERS
1239000000: global: x0=0x00000000
1239000000: global: x1=0x0001113c
1239000000: global: x2=0x000111bc
1239000000: global: x3=0x0001123c
1239000000: global: x4=0x000112bc
1239000000: global: x5=0x0001133c
1239000000: global: x6=0x000113bc
1239000000: global: x7=0x00000000
1239000000: global: x8=0x000113bc
1239000000: global: x9=0x00000000
1239000000: global: x10=0x0001123c
1239000000: global: x11=0x00000000
1239000000: global: x12=0x00000000
1239000000: global: x13=0x00000000
1239000000: global: x14=0x00000000
1239000000: global: x15=0x00000000
1239000000: global: x16=0x00000000
1239000000: global: x17=0x00000000
1239000000: global: x18=0x00000000
1239000000: global: x19=0x00000000
1239000000: global: x20=0x00000000
1239000000: global: x21=0x00000000
1239000000: global: x22=0x00000000
1239000000: global: x23=0x00000000
1239000000: global: x24=0x00000000
1239000000: global: x25=0x00000000
1239000000: global: x26=0x00000000
1239000000: global: x27=0x00000000
1239000000: global: x28=0x00000000
1239000000: global: x29=0x00000000
1239000000: global: x30=0x00000000
1239000000: global: x31=0x00000000
1239000000: global: f0=0x00000000
1239000000: global: f1=0x40933333
1239000000: global: f2=0x4019999a
1239000000: global: f3=0x40200000
1239000000: global: f4=0x00000000
1239000000: global: f5=0x00000000
1239000000: global: f6=0x00000000
1239000000: global: f7=0x4196147b
1239000000: global: f8=0x4182e148
1239000000: global: f9=0x4367a859
1239000000: global: f10=0x00000000
1239000000: global: f11=0x00000000
1239000000: global: f12=0x00000000
1239000000: global: f13=0x00000000
1239000000: global: f14=0x00000000
1239000000: global: f15=0x00000000
1239000000: global: f16=0x00000000
1239000000: global: f17=0x00000000
1239000000: global: f18=0x00000000
1239000000: global: f19=0x00000000
1239000000: global: f20=0x00000000
1239000000: global: f21=0x00000000
1239000000: global: f22=0x00000000
1239000000: global: f23=0x00000000
1239000000: global: f24=0x00000000
1239000000: global: f25=0x00000000
1239000000: global: f26=0x00000000
1239000000: global: f27=0x00000000
1239000000: global: f28=0x00000000
1239000000: global: f29=0x00000000
1239000000: global: f30=0x00000000
1239000000: global: f31=0x00000000
1239000000: system.cpu.memory: Log4GUI: memory: 1239000000: 0: 10120: fsw f9, 0(x8)
1239000000: system.cpu.execute: Log4GUI: execute: 1239000000: 0: 10124: addi x7, x7, -1: 0
1239000000: system.cpu.decode: Log4GUI: decode: 1239000000: 0: 10128: slli x9, x7, 2
1239000000: system.cpu.fetch1: Log4GUI: fetch1: 1239000000: 0: 1012c: <assembly>
1240000000: system.cpu.writeback: Log4GUI: writeback: 1240000000: 0: 10120: fsw f9, 0(x8)
1240000000: system.cpu.writeback: REGISTERS
1240000000: global: x0=0x00000000
1240000000: global: x1=0x0001113c
1240000000: global: x2=0x000111bc
1240000000: global: x3=0x0001123c
1240000000: global: x4=0x000112bc
1240000000: global: x5=0x0001133c
1240000000: global: x6=0x000113bc
1240000000: global: x7=0x00000000
1240000000: global: x8=0x000113bc
1240000000: global: x9=0x00000000
1240000000: global: x10=0x0001123c
1240000000: global: x11=0x00000000
1240000000: global: x12=0x00000000
1240000000: global: x13=0x00000000
1240000000: global: x14=0x00000000
1240000000: global: x15=0x00000000
1240000000: global: x16=0x00000000
1240000000: global: x17=0x00000000
1240000000: global: x18=0x00000000
1240000000: global: x19=0x00000000
1240000000: global: x20=0x00000000
1240000000: global: x21=0x00000000
1240000000: global: x22=0x00000000
1240000000: global: x23=0x00000000
1240000000: global: x24=0x00000000
1240000000: global: x25=0x00000000
1240000000: global: x26=0x00000000
1240000000: global: x27=0x00000000
1240000000: global: x28=0x00000000
1240000000: global: x29=0x00000000
1240000000: global: x30=0x00000000
1240000000: global: x31=0x00000000
1240000000: global: f0=0x00000000
1240000000: global: f1=0x40933333
1240000000: global: f2=0x4019999a
1240000000: global: f3=0x40200000
1240000000: global: f4=0x00000000
1240000000: global: f5=0x00000000
1240000000: global: f6=0x00000000
1240000000: global: f7=0x4196147b
1240000000: global: f8=0x4182e148
1240000000: global: f9=0x4367a859
1240000000: global: f10=0x00000000
1240000000: global: f11=0x00000000
1240000000: global: f12=0x00000000
1240000000: global: f13=0x00000000
1240000000: global: f14=0x00000000
1240000000: global: f15=0x00000000
1240000000: global: f16=0x00000000
1240000000: global: f17=0x00000000
1240000000: global: f18=0x00000000
1240000000: global: f19=0x00000000
1240000000: global: f20=0x00000000
1240000000: global: f21=0x00000000
1240000000: global: f22=0x00000000
1240000000: global: f23=0x00000000
1240000000: global: f24=0x00000000
1240000000: global: f25=0x00000000
1240000000: global: f26=0x00000000
1240000000: global: f27=0x00000000
1240000000: global: f28=0x00000000
1240000000: global: f29=0x00000000
1240000000: global: f30=0x00000000
1240000000: global: f31=0x00000000
1240000000: system.cpu.memory: Log4GUI: memory: 1240000000: 0: 10124: addi x7, x7, -1
1240000000: system.cpu.execute: Log4GUI: execute: 1240000000: 0: 10128: slli x9, x7, 2: 0
1240000000: system.cpu.decode: Log4GUI: decode: 1240000000: 0: 1012c: jal x0, -84
1240000000: system.cpu.fetch1: Log4GUI: fetch1: 1240000000: 0: 10130: <assembly>
1241000000: system.cpu.writeback: Log4GUI: writeback: 1241000000: 0: 10124: addi x7, x7, -1
1241000000: system.cpu.writeback: REGISTERS
1241000000: global: x0=0x00000000
1241000000: global: x1=0x0001113c
1241000000: global: x2=0x000111bc
1241000000: global: x3=0x0001123c
1241000000: global: x4=0x000112bc
1241000000: global: x5=0x0001133c
1241000000: global: x6=0x000113bc
1241000000: global: x7=0xffffffff
1241000000: global: x8=0x000113bc
1241000000: global: x9=0x00000000
1241000000: global: x10=0x0001123c
1241000000: global: x11=0x00000000
1241000000: global: x12=0x00000000
1241000000: global: x13=0x00000000
1241000000: global: x14=0x00000000
1241000000: global: x15=0x00000000
1241000000: global: x16=0x00000000
1241000000: global: x17=0x00000000
1241000000: global: x18=0x00000000
1241000000: global: x19=0x00000000
1241000000: global: x20=0x00000000
1241000000: global: x21=0x00000000
1241000000: global: x22=0x00000000
1241000000: global: x23=0x00000000
1241000000: global: x24=0x00000000
1241000000: global: x25=0x00000000
1241000000: global: x26=0x00000000
1241000000: global: x27=0x00000000
1241000000: global: x28=0x00000000
1241000000: global: x29=0x00000000
1241000000: global: x30=0x00000000
1241000000: global: x31=0x00000000
1241000000: global: f0=0x00000000
1241000000: global: f1=0x40933333
1241000000: global: f2=0x4019999a
1241000000: global: f3=0x40200000
1241000000: global: f4=0x00000000
1241000000: global: f5=0x00000000
1241000000: global: f6=0x00000000
1241000000: global: f7=0x4196147b
1241000000: global: f8=0x4182e148
1241000000: global: f9=0x4367a859
1241000000: global: f10=0x00000000
1241000000: global: f11=0x00000000
1241000000: global: f12=0x00000000
1241000000: global: f13=0x00000000
1241000000: global: f14=0x00000000
1241000000: global: f15=0x00000000
1241000000: global: f16=0x00000000
1241000000: global: f17=0x00000000
1241000000: global: f18=0x00000000
1241000000: global: f19=0x00000000
1241000000: global: f20=0x00000000
1241000000: global: f21=0x00000000
1241000000: global: f22=0x00000000
1241000000: global: f23=0x00000000
1241000000: global: f24=0x00000000
1241000000: global: f25=0x00000000
1241000000: global: f26=0x00000000
1241000000: global: f27=0x00000000
1241000000: global: f28=0x00000000
1241000000: global: f29=0x00000000
1241000000: global: f30=0x00000000
1241000000: global: f31=0x00000000
1241000000: system.cpu.memory: Log4GUI: memory: 1241000000: 0: 10128: slli x9, x7, 2
1241000000: system.cpu.execute: Log4GUI: execute: 1241000000: 0: 1012c: jal x0, -84: 0
1241000000: system.cpu.fetch1: Log4GUI: fetch1: 1241000000: 0: 100d8: <assembly>
1242000000: system.cpu.writeback: Log4GUI: writeback: 1242000000: 0: 10128: slli x9, x7, 2
1242000000: system.cpu.writeback: REGISTERS
1242000000: global: x0=0x00000000
1242000000: global: x1=0x0001113c
1242000000: global: x2=0x000111bc
1242000000: global: x3=0x0001123c
1242000000: global: x4=0x000112bc
1242000000: global: x5=0x0001133c
1242000000: global: x6=0x000113bc
1242000000: global: x7=0xffffffff
1242000000: global: x8=0x000113bc
1242000000: global: x9=0xfffffffc
1242000000: global: x10=0x0001123c
1242000000: global: x11=0x00000000
1242000000: global: x12=0x00000000
1242000000: global: x13=0x00000000
1242000000: global: x14=0x00000000
1242000000: global: x15=0x00000000
1242000000: global: x16=0x00000000
1242000000: global: x17=0x00000000
1242000000: global: x18=0x00000000
1242000000: global: x19=0x00000000
1242000000: global: x20=0x00000000
1242000000: global: x21=0x00000000
1242000000: global: x22=0x00000000
1242000000: global: x23=0x00000000
1242000000: global: x24=0x00000000
1242000000: global: x25=0x00000000
1242000000: global: x26=0x00000000
1242000000: global: x27=0x00000000
1242000000: global: x28=0x00000000
1242000000: global: x29=0x00000000
1242000000: global: x30=0x00000000
1242000000: global: x31=0x00000000
1242000000: global: f0=0x00000000
1242000000: global: f1=0x40933333
1242000000: global: f2=0x4019999a
1242000000: global: f3=0x40200000
1242000000: global: f4=0x00000000
1242000000: global: f5=0x00000000
1242000000: global: f6=0x00000000
1242000000: global: f7=0x4196147b
1242000000: global: f8=0x4182e148
1242000000: global: f9=0x4367a859
1242000000: global: f10=0x00000000
1242000000: global: f11=0x00000000
1242000000: global: f12=0x00000000
1242000000: global: f13=0x00000000
1242000000: global: f14=0x00000000
1242000000: global: f15=0x00000000
1242000000: global: f16=0x00000000
1242000000: global: f17=0x00000000
1242000000: global: f18=0x00000000
1242000000: global: f19=0x00000000
1242000000: global: f20=0x00000000
1242000000: global: f21=0x00000000
1242000000: global: f22=0x00000000
1242000000: global: f23=0x00000000
1242000000: global: f24=0x00000000
1242000000: global: f25=0x00000000
1242000000: global: f26=0x00000000
1242000000: global: f27=0x00000000
1242000000: global: f28=0x00000000
1242000000: global: f29=0x00000000
1242000000: global: f30=0x00000000
1242000000: global: f31=0x00000000
1242000000: system.cpu.memory: Log4GUI: memory: 1242000000: 0: 1012c: jal x0, -84
1242000000: system.cpu.decode: Log4GUI: decode: 1242000000: 0: 100d8: blt x7, x0, 88
1242000000: system.cpu.fetch1: Log4GUI: fetch1: 1242000000: 0: 100dc: <assembly>
1243000000: system.cpu.writeback: Log4GUI: writeback: 1243000000: 0: 1012c: jal x0, -84
1243000000: system.cpu.writeback: REGISTERS
1243000000: global: x0=0x00000000
1243000000: global: x1=0x0001113c
1243000000: global: x2=0x000111bc
1243000000: global: x3=0x0001123c
1243000000: global: x4=0x000112bc
1243000000: global: x5=0x0001133c
1243000000: global: x6=0x000113bc
1243000000: global: x7=0xffffffff
1243000000: global: x8=0x000113bc
1243000000: global: x9=0xfffffffc
1243000000: global: x10=0x0001123c
1243000000: global: x11=0x00000000
1243000000: global: x12=0x00000000
1243000000: global: x13=0x00000000
1243000000: global: x14=0x00000000
1243000000: global: x15=0x00000000
1243000000: global: x16=0x00000000
1243000000: global: x17=0x00000000
1243000000: global: x18=0x00000000
1243000000: global: x19=0x00000000
1243000000: global: x20=0x00000000
1243000000: global: x21=0x00000000
1243000000: global: x22=0x00000000
1243000000: global: x23=0x00000000
1243000000: global: x24=0x00000000
1243000000: global: x25=0x00000000
1243000000: global: x26=0x00000000
1243000000: global: x27=0x00000000
1243000000: global: x28=0x00000000
1243000000: global: x29=0x00000000
1243000000: global: x30=0x00000000
1243000000: global: x31=0x00000000
1243000000: global: f0=0x00000000
1243000000: global: f1=0x40933333
1243000000: global: f2=0x4019999a
1243000000: global: f3=0x40200000
1243000000: global: f4=0x00000000
1243000000: global: f5=0x00000000
1243000000: global: f6=0x00000000
1243000000: global: f7=0x4196147b
1243000000: global: f8=0x4182e148
1243000000: global: f9=0x4367a859
1243000000: global: f10=0x00000000
1243000000: global: f11=0x00000000
1243000000: global: f12=0x00000000
1243000000: global: f13=0x00000000
1243000000: global: f14=0x00000000
1243000000: global: f15=0x00000000
1243000000: global: f16=0x00000000
1243000000: global: f17=0x00000000
1243000000: global: f18=0x00000000
1243000000: global: f19=0x00000000
1243000000: global: f20=0x00000000
1243000000: global: f21=0x00000000
1243000000: global: f22=0x00000000
1243000000: global: f23=0x00000000
1243000000: global: f24=0x00000000
1243000000: global: f25=0x00000000
1243000000: global: f26=0x00000000
1243000000: global: f27=0x00000000
1243000000: global: f28=0x00000000
1243000000: global: f29=0x00000000
1243000000: global: f30=0x00000000
1243000000: global: f31=0x00000000
1243000000: system.cpu.execute: Log4GUI: execute: 1243000000: 0: 100d8: blt x7, x0, 88: 0
1243000000: system.cpu.fetch1: Log4GUI: fetch1: 1243000000: 0: 10130: <assembly>
1244000000: system.cpu.memory: Log4GUI: memory: 1244000000: 0: 100d8: blt x7, x0, 88
1244000000: system.cpu.decode: Log4GUI: decode: 1244000000: 0: 10130: addi x10, x0, 0
1244000000: system.cpu.fetch1: Log4GUI: fetch1: 1244000000: 0: 10134: <assembly>
1245000000: system.cpu.writeback: Log4GUI: writeback: 1245000000: 0: 100d8: blt x7, x0, 88
1245000000: system.cpu.writeback: REGISTERS
1245000000: global: x0=0x00000000
1245000000: global: x1=0x0001113c
1245000000: global: x2=0x000111bc
1245000000: global: x3=0x0001123c
1245000000: global: x4=0x000112bc
1245000000: global: x5=0x0001133c
1245000000: global: x6=0x000113bc
1245000000: global: x7=0xffffffff
1245000000: global: x8=0x000113bc
1245000000: global: x9=0xfffffffc
1245000000: global: x10=0x0001123c
1245000000: global: x11=0x00000000
1245000000: global: x12=0x00000000
1245000000: global: x13=0x00000000
1245000000: global: x14=0x00000000
1245000000: global: x15=0x00000000
1245000000: global: x16=0x00000000
1245000000: global: x17=0x00000000
1245000000: global: x18=0x00000000
1245000000: global: x19=0x00000000
1245000000: global: x20=0x00000000
1245000000: global: x21=0x00000000
1245000000: global: x22=0x00000000
1245000000: global: x23=0x00000000
1245000000: global: x24=0x00000000
1245000000: global: x25=0x00000000
1245000000: global: x26=0x00000000
1245000000: global: x27=0x00000000
1245000000: global: x28=0x00000000
1245000000: global: x29=0x00000000
1245000000: global: x30=0x00000000
1245000000: global: x31=0x00000000
1245000000: global: f0=0x00000000
1245000000: global: f1=0x40933333
1245000000: global: f2=0x4019999a
1245000000: global: f3=0x40200000
1245000000: global: f4=0x00000000
1245000000: global: f5=0x00000000
1245000000: global: f6=0x00000000
1245000000: global: f7=0x4196147b
1245000000: global: f8=0x4182e148
1245000000: global: f9=0x4367a859
1245000000: global: f10=0x00000000
1245000000: global: f11=0x00000000
1245000000: global: f12=0x00000000
1245000000: global: f13=0x00000000
1245000000: global: f14=0x00000000
1245000000: global: f15=0x00000000
1245000000: global: f16=0x00000000
1245000000: global: f17=0x00000000
1245000000: global: f18=0x00000000
1245000000: global: f19=0x00000000
1245000000: global: f20=0x00000000
1245000000: global: f21=0x00000000
1245000000: global: f22=0x00000000
1245000000: global: f23=0x00000000
1245000000: global: f24=0x00000000
1245000000: global: f25=0x00000000
1245000000: global: f26=0x00000000
1245000000: global: f27=0x00000000
1245000000: global: f28=0x00000000
1245000000: global: f29=0x00000000
1245000000: global: f30=0x00000000
1245000000: global: f31=0x00000000
1245000000: system.cpu.execute: Log4GUI: execute: 1245000000: 0: 10130: addi x10, x0, 0: 0
1245000000: system.cpu.decode: Log4GUI: decode: 1245000000: 0: 10134: addi x17, x0, 93
1245000000: system.cpu.fetch1: Log4GUI: fetch1: 1245000000: 0: 10138: <assembly>
1246000000: system.cpu.memory: Log4GUI: memory: 1246000000: 0: 10130: addi x10, x0, 0
1246000000: system.cpu.execute: Log4GUI: execute: 1246000000: 0: 10134: addi x17, x0, 93: 0
1246000000: system.cpu.decode: Log4GUI: decode: 1246000000: 0: 10138: ecall
1246000000: system.cpu.fetch1: Log4GUI: fetch1: 1246000000: 0: 1013c: <assembly>
1247000000: system.cpu.writeback: Log4GUI: writeback: 1247000000: 0: 10130: addi x10, x0, 0
1247000000: system.cpu.writeback: REGISTERS
1247000000: global: x0=0x00000000
1247000000: global: x1=0x0001113c
1247000000: global: x2=0x000111bc
1247000000: global: x3=0x0001123c
1247000000: global: x4=0x000112bc
1247000000: global: x5=0x0001133c
1247000000: global: x6=0x000113bc
1247000000: global: x7=0xffffffff
1247000000: global: x8=0x000113bc
1247000000: global: x9=0xfffffffc
1247000000: global: x10=0x00000000
1247000000: global: x11=0x00000000
1247000000: global: x12=0x00000000
1247000000: global: x13=0x00000000
1247000000: global: x14=0x00000000
1247000000: global: x15=0x00000000
1247000000: global: x16=0x00000000
1247000000: global: x17=0x00000000
1247000000: global: x18=0x00000000
1247000000: global: x19=0x00000000
1247000000: global: x20=0x00000000
1247000000: global: x21=0x00000000
1247000000: global: x22=0x00000000
1247000000: global: x23=0x00000000
1247000000: global: x24=0x00000000
1247000000: global: x25=0x00000000
1247000000: global: x26=0x00000000
1247000000: global: x27=0x00000000
1247000000: global: x28=0x00000000
1247000000: global: x29=0x00000000
1247000000: global: x30=0x00000000
1247000000: global: x31=0x00000000
1247000000: global: f0=0x00000000
1247000000: global: f1=0x40933333
1247000000: global: f2=0x4019999a
1247000000: global: f3=0x40200000
1247000000: global: f4=0x00000000
1247000000: global: f5=0x00000000
1247000000: global: f6=0x00000000
1247000000: global: f7=0x4196147b
1247000000: global: f8=0x4182e148
1247000000: global: f9=0x4367a859
1247000000: global: f10=0x00000000
1247000000: global: f11=0x00000000
1247000000: global: f12=0x00000000
1247000000: global: f13=0x00000000
1247000000: global: f14=0x00000000
1247000000: global: f15=0x00000000
1247000000: global: f16=0x00000000
1247000000: global: f17=0x00000000
1247000000: global: f18=0x00000000
1247000000: global: f19=0x00000000
1247000000: global: f20=0x00000000
1247000000: global: f21=0x00000000
1247000000: global: f22=0x00000000
1247000000: global: f23=0x00000000
1247000000: global: f24=0x00000000
1247000000: global: f25=0x00000000
1247000000: global: f26=0x00000000
1247000000: global: f27=0x00000000
1247000000: global: f28=0x00000000
1247000000: global: f29=0x00000000
1247000000: global: f30=0x00000000
1247000000: global: f31=0x00000000
1247000000: system.cpu.memory: Log4GUI: memory: 1247000000: 0: 10134: addi x17, x0, 93
1247000000: system.cpu.execute: Log4GUI: execute: 1247000000: 0: 10138: ecall: -1
1247000000: system.cpu.decode: Log4GUI: decode: 1247000000: 0: 1013c: c_addi4spn x8, x2, 0
1247000000: system.cpu.fetch1: Log4GUI: fetch1: 1247000000: 0: 1013e: <assembly>
Exiting @ tick 1247000000 because exiting with last active thread context
